520
Lattice="17.030359838682134 18.07649850800878 0.0 -17.030359838682134 18.07649850800878 0.0 0.0 0.0 25.054441994943765" Properties=species:S:1:pos:R:3 pbc="T T T"
Cs      -0.23982684      12.85872184       3.13180525
Cs      -8.27535305      14.25602593       9.39541575
Cs      -4.49741680       9.73690130       9.39541575
Cs      -4.01776312      17.37784646       3.13180525
Pb      -8.51517992       9.03824925       6.26361050
Pb      -4.25758996      13.55737388       6.26361050
Pb      -8.51517992       9.03824925       0.00000000
Pb      -4.25758996      13.55737388       0.00000000
I       -6.88802678      11.77660615       6.73940693
I       -1.62715327      15.33814188       5.78781407
I       -2.63043669      10.81901698       5.78781407
I       -5.88474322      16.29573051       6.73940693
I       -1.62715327      15.33814188       0.47579643
I       -6.88802678      11.77660615      12.05142457
I       -5.88474322      16.29573051      12.05142457
I       -2.63043669      10.81901698       0.47579643
I       -0.65085743      18.03095477       9.39541575
I       -7.86432229       9.08379314       3.13180525
I       -4.90844765      13.60291762       3.13180525
I       -3.60673253      13.51182987       9.39541575
N       -0.01858306      12.97860049      15.19836231
C        0.49652874      11.92477105      16.08456010
H        0.83351711      12.41200589      17.00239255
H        1.27279224      11.63980978      15.58778019
H       -0.27952960      11.19505966      16.13316451
C       -1.20483923      13.65952531      15.72993027
H       -1.90750573      13.01987662      15.86335964
H       -1.49513881      14.32865191      15.10648797
H       -0.98677017      14.07530708      16.56731998
H       -0.28597831      12.60772258      14.36613780
H        0.58023234      13.51206736      15.13148436
Cs      -8.27535305      14.25602593      21.92263675
Cs      -4.49741680       9.73690130      21.92263675
N       -4.04830732      16.91669481      15.90789803
C       -4.58283522      17.13450005      14.55583147
H       -5.39170475      17.86356355      14.64284777
H       -4.97003655      16.26918422      14.37727649
H       -3.73405269      17.36305653      13.95214462
C       -3.42717226      18.11239255      16.48921116
H       -2.70189357      18.39946823      15.93041564
H       -3.09412002      17.90550912      17.36497369
H       -4.07994295      18.81350159      16.55235123
H       -3.36706654      16.25544551      15.89032947
H       -4.68292425      16.70815392      16.35668693
Pb      -8.51517992       9.03824925      18.79083150
Pb      -4.25758996      13.55737388      18.79083150
Pb      -8.51517992       9.03824925      12.52722100
Pb      -4.25758996      13.55737388      12.52722100
I       -6.88802678      11.77660615      19.26662793
I       -1.62715327      15.33814188      18.31503507
I       -2.63043669      10.81901698      18.31503507
I       -5.88474322      16.29573051      19.26662793
I       -1.62715327      15.33814188      13.00301743
I       -6.88802678      11.77660615      24.57864556
I       -5.88474322      16.29573051      24.57864556
I       -2.63043669      10.81901698      13.00301743
I       -0.65085743      18.03095477      21.92263675
I       -7.86432229       9.08379314      15.65902625
I       -4.90844765      13.60291762      15.65902625
I       -3.60673253      13.51182987      21.92263675
Cs      -0.23982684      21.89697109       3.13180525
N       -8.63810699      23.06331188       9.09442324
C       -7.92351516      22.36049316      10.16989872
H       -6.86877838      22.32695341       9.88744386
H       -8.29241105      21.47396741      10.07734516
H       -8.20977244      22.85800134      11.06859224
C       -8.23505483      24.46652849       8.94623791
H       -8.40453715      24.93592823       9.76577051
H       -8.73856170      24.87010147       8.23610113
H       -7.29854220      24.51034546       8.73966034
H       -9.57019793      23.08090697       9.27482606
H       -8.45182160      22.66587842       8.41989834
N       -4.22246553      18.83899867       9.83797216
C       -4.44692450      17.52575158       9.21648731
H       -5.52081203      17.32954686       9.25704115
H       -4.00750714      16.95083040       9.85441854
H       -3.95886837      17.57641730       8.26973399
C       -4.84358802      19.94636784       9.10219558
H       -4.48644723      19.97879284       8.21219945
H       -4.65728183      20.77306094       9.55225456
H       -5.79313993      19.81087178       9.06167240
H       -3.29406380      19.03647690       9.86482094
H       -4.55867700      18.78957223      10.56746398
Cs      -4.01776312      26.41609572       3.13180525
Pb      -8.51517992      18.07649851       6.26361050
Pb      -4.25758996      22.59562313       6.26361050
Pb      -8.51517992      18.07649851       0.00000000
Pb      -4.25758996      22.59562313       0.00000000
I       -6.88802678      20.81485541       6.73940693
I       -1.62715327      24.37639113       5.78781407
I       -2.63043669      19.85726624       5.78781407
I       -5.88474322      25.33397976       6.73940693
I       -1.62715327      24.37639113       0.47579643
I       -6.88802678      20.81485541      12.05142457
I       -5.88474322      25.33397976      12.05142457
I       -2.63043669      19.85726624       0.47579643
I       -0.65085743      27.06920402       9.39541575
I       -7.86432229      18.12204239       3.13180525
I       -4.90844765      22.64116688       3.13180525
I       -3.60673253      22.55007912       9.39541575
Cs      -0.23982684      21.89697109      15.65902625
N       -8.19165940      23.31891588      22.44024583
C       -8.67371778      22.10621416      21.76332824
H       -9.65889013      22.33716353      21.35165705
H       -8.78908093      21.51650053      22.51798540
H       -7.88486173      21.81987634      21.10543431
C       -7.97231891      24.44773833      21.52861191
H       -7.32116466      24.20290102      20.86774363
H       -7.65418694      25.20348329      22.02693526
H       -8.79859282      24.67461017      21.09565612
H       -7.35240181      23.15444102      22.85285099
H       -8.77071023      23.51507950      22.96356161
N       -4.19285880      18.93562051      21.52637322
C       -3.67182430      18.64191991      22.86932005
H       -4.11641374      19.36848189      23.55329612
H       -2.74084514      18.86490186      22.75042888
H       -3.85323719      17.60186503      23.01926292
C       -5.64218086      18.73897789      21.40710858
H       -5.85886558      17.82701380      21.61220191
H       -5.91900554      18.94000945      20.51064945
H       -6.09572183      19.32181818      22.02049908
H       -3.80066689      18.35409561      20.88632433
H       -4.02352111      19.71170963      21.39733889
N       -3.63486437      26.34468108      15.30714637
C       -3.38072669      26.75559092      16.69560246
H       -3.83255158      27.74139502      16.82758682
H       -2.42187611      26.85960746      16.67651387
H       -3.71696305      25.94049306      17.29532594
C       -5.05880316      26.15841507      15.00526877
H       -5.42192085      25.48269666      15.58167508
H       -5.15836420      25.88627496      14.09054919
H       -5.52652934      26.98488475      15.14608858
H       -3.22266495      25.50769727      15.13051678
H       -3.34795678      26.94320676      14.85207441
Pb      -8.51517992      18.07649851      18.79083150
Pb      -4.25758996      22.59562313      18.79083150
Pb      -8.51517992      18.07649851      12.52722100
Pb      -4.25758996      22.59562313      12.52722100
I       -6.88802678      20.81485541      19.26662793
I       -1.62715327      24.37639113      18.31503507
I       -2.63043669      19.85726624      18.31503507
I       -5.88474322      25.33397976      19.26662793
I       -1.62715327      24.37639113      13.00301743
I       -6.88802678      20.81485541      24.57864556
I       -5.88474322      25.33397976      24.57864556
I       -2.63043669      19.85726624      13.00301743
I       -0.65085743      27.06920402      21.92263675
I       -7.86432229      18.12204239      15.65902625
I       -4.90844765      22.64116688      15.65902625
I       -3.60673253      22.55007912      21.92263675
N       -8.89580443      22.26022408       3.48359245
C       -9.86814077      21.45638482       2.72884239
H       -9.75683800      21.72209410       1.67509403
H      -10.69617932      21.83113770       3.05209257
H       -9.69830477      20.44949312       3.03614108
C       -7.50024900      21.94851537       3.15391148
H       -7.32590361      21.02420512       3.34351184
H       -6.91706247      22.49895653       3.68078201
H       -7.34587071      22.11907369       2.22185605
H       -8.98348934      22.09484338       4.41451074
H       -9.04744720      23.02395968       3.28024093
Cs       0.23982687       5.21777667       9.39541575
Cs     -13.01259671      18.77515055       9.39541575
Cs       4.49741680       8.33959721       3.13180525
Pb       0.00000000       0.00000000       6.26361050
Pb       4.25758996       4.51912463       6.26361050
Pb       0.00000000       0.00000000       0.00000000
Pb       4.25758996       4.51912463       0.00000000
I        1.62715314       2.73835690       6.73940693
I      -10.14233318      24.37639113       5.78781407
I      -11.14561661      19.85726624       5.78781407
I        2.63043669       7.25748125       6.73940693
I      -10.14233318      24.37639113       0.47579643
I        1.62715314       2.73835690      12.05142457
I        2.63043669       7.25748125      12.05142457
I      -11.14561661      19.85726624       0.47579643
I        7.86432249       8.99270551       9.39541575
I      -16.37950221      18.12204239       3.13180525
I        3.60673227       4.56466837       3.13180525
I      -12.12191244      22.55007912       9.39541575
Cs      -8.75500675      21.89697109      15.65902625
Cs       0.23982687       5.21777667      21.92263675
Cs     -13.01259671      18.77515055      21.92263675
N        4.76670856       8.76068809      15.49872849
C        4.38961930       8.53716792      16.90196959
H        3.29864537       8.56507485      16.95067724
H        4.73374820       9.34179337      17.30784079
H        4.90462714       7.64989227      17.19285873
C        4.31428495       7.69557118      14.59636181
H        4.69568265       6.85948077      14.87237391
H        4.59474129       7.89527348      13.70073477
H        3.35655718       7.63625812      14.62618794
H        5.71189137       8.78749780      15.41178613
H        4.40802706       9.44991453      15.28907654
Pb       0.00000000       0.00000000      18.79083150
Pb       4.25758996       4.51912463      18.79083150
Pb       0.00000000       0.00000000      12.52722100
Pb       4.25758996       4.51912463      12.52722100
I        1.62715314       2.73835690      19.26662793
I      -10.14233318      24.37639113      18.31503507
I      -11.14561661      19.85726624      18.31503507
I        2.63043669       7.25748125      19.26662793
I      -10.14233318      24.37639113      13.00301743
I        1.62715314       2.73835690      24.57864556
I        2.63043669       7.25748125      24.57864556
I      -11.14561661      19.85726624      13.00301743
I        7.86432249       8.99270551      21.92263675
I      -16.37950221      18.12204239      15.65902625
I        3.60673227       4.56466837      15.65902625
I      -12.12191244      22.55007912      21.92263675
Cs       8.27535308      12.85872184       3.13180525
Cs       0.23982687      14.25602593       9.39541575
Cs       4.01776312       9.73690130       9.39541575
Cs       4.49741680      17.37784646       3.13180525
Pb       0.00000000       9.03824925       6.26361050
Pb       4.25758996      13.55737388       6.26361050
Pb       0.00000000       9.03824925       0.00000000
Pb       4.25758996      13.55737388       0.00000000
I        1.62715314      11.77660615       6.73940693
I        6.88802665      15.33814188       5.78781407
I        5.88474322      10.81901698       5.78781407
I        2.63043669      16.29573051       6.73940693
I        6.88802665      15.33814188       0.47579643
I        1.62715314      11.77660615      12.05142457
I        2.63043669      16.29573051      12.05142457
I        5.88474322      10.81901698       0.47579643
I        7.86432249      18.03095477       9.39541575
I        0.65085762       9.08379314       3.13180525
I        3.60673227      13.60291762       3.13180525
I        4.90844739      13.51182987       9.39541575
Cs       8.27535308      12.85872184      15.65902625
Cs       0.23982687      14.25602593      21.92263675
Cs       4.01776312       9.73690130      21.92263675
Cs       4.49741680      17.37784646      15.65902625
Pb       0.00000000       9.03824925      18.79083150
Pb       4.25758996      13.55737388      18.79083150
Pb       0.00000000       9.03824925      12.52722100
Pb       4.25758996      13.55737388      12.52722100
I        1.62715314      11.77660615      19.26662793
I        6.88802665      15.33814188      18.31503507
I        5.88474322      10.81901698      18.31503507
I        2.63043669      16.29573051      19.26662793
I        6.88802665      15.33814188      13.00301743
I        1.62715314      11.77660615      24.57864556
I        2.63043669      16.29573051      24.57864556
I        5.88474322      10.81901698      13.00301743
I        7.86432249      18.03095477      21.92263675
I        0.65085762       9.08379314      15.65902625
I        3.60673227      13.60291762      15.65902625
I        4.90844739      13.51182987      21.92263675
Cs       8.27535308      21.89697109       3.13180525
Cs       0.23982687      23.29427518       9.39541575
Cs       4.01776312      18.77515055       9.39541575
N        4.45106239      26.04605040       2.76241563
C        5.49409923      26.01822408       3.79805216
H        6.13583621      26.88659406       3.63227352
H        5.97972111      25.22610002       3.53865074
H        4.96977490      25.92280768       4.72167945
C        3.55981255      27.20749128       2.86319057
H        3.12368600      27.20240233       3.71786115
H        2.90068214      27.16554873       2.16715000
H        4.07286759      28.01356327       2.77006378
H        3.89013376      25.28373633       2.83912684
H        4.84680930      26.08099820       2.06255673
Pb      -0.00000000      18.07649851       6.26361050
Pb       4.25758996      22.59562313       6.26361050
Pb      -0.00000000      18.07649851       0.00000000
Pb       4.25758996      22.59562313       0.00000000
I        1.62715314      20.81485541       6.73940693
I        6.88802665      24.37639113       5.78781407
I        5.88474322      19.85726624       5.78781407
I        2.63043669      25.33397976       6.73940693
I        6.88802665      24.37639113       0.47579643
I        1.62715314      20.81485541      12.05142457
I        2.63043669      25.33397976      12.05142457
I        5.88474322      19.85726624       0.47579643
I        7.86432249      27.06920402       9.39541575
I        0.65085762      18.12204239       3.13180525
I        3.60673227      22.64116688       3.13180525
I        4.90844739      22.55007912       9.39541575
Cs       8.27535308      21.89697109      15.65902625
N        0.52554495      23.24713496      22.36044256
C       -0.00208783      22.09208142      21.61970096
H       -1.09185448      22.14478721      21.67452877
H        0.29706417      21.36879334      22.18356324
H        0.47699232      22.12682490      20.66765960
C        0.17230671      24.53756004      21.75757220
H        0.52025761      24.57886787      20.86430971
H        0.54869483      25.24824575      22.28096724
H       -0.78307662      24.62882504      21.73383358
H        1.47461626      23.22212591      22.37736826
H        0.19275502      23.20115591      23.09172652
Cs       4.01776312      18.77515055      21.92263675
Cs       4.49741680      26.41609572      15.65902625
Pb      -0.00000000      18.07649851      18.79083150
Pb       4.25758996      22.59562313      18.79083150
Pb      -0.00000000      18.07649851      12.52722100
Pb       4.25758996      22.59562313      12.52722100
I        1.62715314      20.81485541      19.26662793
I        6.88802665      24.37639113      18.31503507
I        5.88474322      19.85726624      18.31503507
I        2.63043669      25.33397976      19.26662793
I        6.88802665      24.37639113      13.00301743
I        1.62715314      20.81485541      24.57864556
I        2.63043669      25.33397976      24.57864556
I        5.88474322      19.85726624      13.00301743
I        7.86432249      27.06920402      21.92263675
I        0.65085762      18.12204239      15.65902625
I        3.60673227      22.64116688      15.65902625
I        4.90844739      22.55007912      21.92263675
Cs      -8.75500675      12.85872184       3.13180525
Cs       0.23982687      32.33252444       9.39541575
N        4.32877403      27.67058929       9.79342119
C        3.28605050      26.79592524       9.23760321
H        2.32467158      27.27648126       9.43303048
H        3.36846531      26.03083561       9.81934533
H        3.58367002      26.60956510       8.23072677
C        4.40978181      28.97657971       9.12915199
H        4.60009307      28.84983795       8.19726563
H        5.10911924      29.49636628       9.53094005
H        3.57293261      29.43705970       9.22554555
H        5.18436291      27.27322884       9.68515938
H        4.12471697      27.78211764      10.56385067
N      -12.52472432      17.38121548       2.60696998
C      -11.85310159      18.40115337       3.42543977
H      -12.63138428      18.94171855       3.96898432
H      -11.50454807      18.97938272       2.73642634
H      -11.10301809      17.87425260       3.97028651
C      -13.21884282      16.36058377       3.40065582
H      -12.58736225      15.91216949       3.96709290
H      -13.62998830      15.72366771       2.81245358
H      -13.89307493      16.77916167       3.94089071
H      -11.88978537      16.91036147       2.08085468
H      -13.06640005      17.78322120       2.16808703
Pb       0.00000000      27.11474776       6.26361050
Pb     -12.77276988      13.55737388       6.26361050
Pb       0.00000000      27.11474776       0.00000000
Pb     -12.77276988      13.55737388       0.00000000
I        1.62715314      29.85310466       6.73940693
I      -10.14233318      15.33814188       5.78781407
I        5.88474322      28.89551549       5.78781407
I      -14.39992314      16.29573051       6.73940693
I      -10.14233318      15.33814188       0.47579643
I        1.62715314      29.85310466      12.05142457
I      -14.39992314      16.29573051      12.05142457
I        5.88474322      28.89551549       0.47579643
I       -9.16603735      18.03095477       9.39541575
I        0.65085762      27.16029165       3.13180525
I        3.60673227      31.67941613       3.13180525
I      -12.12191244      13.51182987       9.39541575
Cs      -8.75500675      12.85872184      15.65902625
Cs       0.23982687      32.33252444      21.92263675
N        3.84550082      28.30427872      21.99259783
C        2.99713512      27.12085484      22.19514837
H        2.89025139      26.63122470      21.22447152
H        2.15809112      27.54100513      22.41888289
H        3.44552131      26.58938851      23.00360432
C        5.21349438      27.97670083      21.57461081
H        5.62964337      27.42924065      22.24379047
H        5.71650045      28.78645070      21.46518228
H        5.18812781      27.50053123      20.74138264
H        3.93350935      28.78941350      22.80410693
H        3.48771517      28.72507121      21.40730940
Cs     -12.53294304      17.37784646      15.65902625
Pb       0.00000000      27.11474776      18.79083150
Pb     -12.77276988      13.55737388      18.79083150
Pb       0.00000000      27.11474776      12.52722100
Pb     -12.77276988      13.55737388      12.52722100
I        1.62715314      29.85310466      19.26662793
I      -10.14233318      15.33814188      18.31503507
I        5.88474322      28.89551549      18.31503507
I      -14.39992314      16.29573051      19.26662793
I      -10.14233318      15.33814188      13.00301743
I        1.62715314      29.85310466      24.57864556
I      -14.39992314      16.29573051      24.57864556
I        5.88474322      28.89551549      13.00301743
I       -9.16603735      18.03095477      21.92263675
I        0.65085762      27.16029165      15.65902625
I        3.60673227      31.67941613      15.65902625
I      -12.12191244      13.51182987      21.92263675
Cs      -0.23982684      30.93522034       3.13180525
Cs       8.75500679      14.25602593       9.39541575
N       -4.37127680      28.10809418       9.81107773
C       -4.98605527      28.65948216       8.59482862
H       -4.27158627      28.51866784       7.78053094
H       -5.01177014      29.59731676       8.81929075
H       -5.94704291      28.20133839       8.53388047
C       -4.14442389      26.65978977       9.74490452
H       -4.98185772      26.21097394       9.61087853
H       -3.74873732      26.36069310      10.56628012
H       -3.55405198      26.46142905       9.01431288
H       -4.93977609      28.24567593      10.55909385
H       -3.66102382      28.48047936       9.87822991
N       13.06727775      16.89380914       3.32737830
C       12.70096790      18.05451916       4.15188573
H       13.54950351      18.74232292       4.13489570
H       12.65763050      17.64507559       5.02427101
H       11.75658516      18.37804072       3.77694217
C       13.26641433      17.22366231       1.91140926
H       12.45712632      17.59387106       1.55267197
H       13.49646015      16.42772811       1.42741315
H       13.97616640      17.86483797       1.82897209
H       12.37429823      16.24488789       3.34551309
H       13.76202423      16.62630584       3.63300675
Pb       8.51517992       9.03824925       6.26361050
Pb      12.77276988      13.55737388       6.26361050
Pb       8.51517992       9.03824925       0.00000000
Pb      12.77276988      13.55737388       0.00000000
I       10.14233306      11.77660615       6.73940693
I       -1.62715327      33.41464039       5.78781407
I       -2.63043669      28.89551549       5.78781407
I       11.14561661      16.29573051       6.73940693
I       -1.62715327      33.41464039       0.47579643
I       10.14233306      11.77660615      12.05142457
I       11.14561661      16.29573051      12.05142457
I       -2.63043669      28.89551549       0.47579643
I       16.37950240      18.03095477       9.39541575
I       -7.86432229      27.16029165       3.13180525
I       12.12191219      13.60291762       3.13180525
I       -3.60673253      31.58832838       9.39541575
Cs      -0.23982684      30.93522034      15.65902625
N        9.14746982      14.56127318      22.09094551
C        9.34850208      13.43171884      21.17174140
H        9.08375998      12.52237635      21.71615226
H       10.30722409      13.45681329      21.06781531
H        8.80936227      13.68945793      20.28856165
C        7.74760653      14.74622994      22.49044593
H        7.21100614      14.90415586      21.71082200
H        7.68121569      15.49835829      23.08254370
H        7.43600706      13.95692039      22.93938505
H        9.40604072      15.37471696      21.67489433
H        9.58379425      14.38480686      22.74372424
N       -4.44842042      27.36924116      22.19805172
C       -5.36984607      28.45000662      22.57774100
H       -4.75957515      29.32216038      22.82328646
H       -5.73410429      28.09238239      23.39627572
H       -6.07432201      28.51129611      21.77957754
C       -3.68183776      27.65714172      20.98031156
H       -4.28592755      27.79754467      20.24815270
H       -3.10606339      26.91546493      20.78261491
H       -3.15229294      28.44655397      21.11470165
H       -4.93212538      26.57279227      22.01544025
H       -3.93836018      27.29727920      22.81635542
Cs      13.01259671      17.37784646      15.65902625
Pb       8.51517992       9.03824925      18.79083150
Pb      12.77276988      13.55737388      18.79083150
Pb       8.51517992       9.03824925      12.52722100
Pb      12.77276988      13.55737388      12.52722100
I       10.14233306      11.77660615      19.26662793
I       -1.62715327      33.41464039      18.31503507
I       -2.63043669      28.89551549      18.31503507
I       11.14561661      16.29573051      19.26662793
I       -1.62715327      33.41464039      13.00301743
I       10.14233306      11.77660615      24.57864556
I       11.14561661      16.29573051      24.57864556
I       -2.63043669      28.89551549      13.00301743
I       16.37950240      18.03095477      21.92263675
I       -7.86432229      27.16029165      15.65902625
I       12.12191219      13.60291762      15.65902625
I       -3.60673253      31.58832838      21.92263675
Cs      -0.23982684       3.82047258       3.13180525
N        8.60937338      22.79449042       9.32805803
C        7.95755208      23.69654187      10.28861794
H        8.70357008      23.95746055      11.04277570
H        7.31688390      23.09619049      10.68824369
H        7.51921185      24.46745224       9.69645014
C        9.70372768      23.42775147       8.58321180
H        9.36397163      24.18013307       8.09414962
H       10.08288113      22.79307270       7.97156641
H       10.37965639      23.72359105       9.19741815
H        7.98606848      22.50465150       8.67297583
H        8.90906979      22.19283652       9.77058948
Cs      12.53294304      18.77515055       9.39541575
Cs      -4.01776312       8.33959721       3.13180525
Pb       8.51517992      18.07649851       6.26361050
Pb      -4.25758996       4.51912463       6.26361050
Pb       8.51517992      18.07649851       0.00000000
Pb      -4.25758996       4.51912463       0.00000000
I       10.14233306      20.81485541       6.73940693
I       -1.62715327       6.29989263       5.78781407
I       14.39992314      19.85726624       5.78781407
I       -5.88474322       7.25748125       6.73940693
I       -1.62715327       6.29989263       0.47579643
I       10.14233306      20.81485541      12.05142457
I       -5.88474322       7.25748125      12.05142457
I       14.39992314      19.85726624       0.47579643
I       -0.65085743       8.99270551       9.39541575
I        9.16603754      18.12204239       3.13180525
I       12.12191219      22.64116688       3.13180525
I       -3.60673253       4.47358062       9.39541575
Cs      -0.23982684       3.82047258      15.65902625
Cs       8.75500679      23.29427518      21.92263675
Cs      12.53294304      18.77515055      21.92263675
N       -4.03764619       7.82021423      15.73235388
C       -4.89699806       8.52730884      14.77174223
H       -5.54537936       9.19151468      15.34776970
H       -5.42929982       7.79511122      14.43839598
H       -4.22964399       8.94209772      14.05084253
C       -3.12624479       8.70814853      16.46334428
H       -2.55596807       9.16367793      15.84047071
H       -2.59081982       8.18916803      17.06721836
H       -3.63662979       9.35171119      16.96031952
H       -3.48213806       7.19653670      15.28059581
H       -4.54229928       7.47597110      16.25624449
Pb       8.51517992      18.07649851      18.79083150
Pb      -4.25758996       4.51912463      18.79083150
Pb       8.51517992      18.07649851      12.52722100
Pb      -4.25758996       4.51912463      12.52722100
I       10.14233306      20.81485541      19.26662793
I       -1.62715327       6.29989263      18.31503507
I       14.39992314      19.85726624      18.31503507
I       -5.88474322       7.25748125      19.26662793
I       -1.62715327       6.29989263      13.00301743
I       10.14233306      20.81485541      24.57864556
I       -5.88474322       7.25748125      24.57864556
I       14.39992314      19.85726624      13.00301743
I       -0.65085743       8.99270551      21.92263675
I        9.16603754      18.12204239      15.65902625
I       12.12191219      22.64116688      15.65902625
I       -3.60673253       4.47358062      21.92263675
