600
Lattice="17.030359838682134 18.07649850800878 0.0 -17.030359838682134 18.07649850800878 0.0 0.0 0.0 25.054441994943765" Properties=species:S:1:pos:R:3 pbc="T T T"
Cs      -0.23982684      12.85872184       3.13180525
Cs      -8.27535305      14.25602593       9.39541575
N       -4.39643918      10.16909998       9.11516803
C       -5.59698804       9.34512768       8.91269515
H       -5.26084697       8.36733849       8.56011493
H       -6.00846723       9.81056378       8.17470304
H       -6.14165708       9.41369259       9.82688449
C       -3.51264699       9.66258963      10.17147549
H       -3.99161839       9.63396267      11.00241528
H       -2.75408776      10.24362869      10.25903162
H       -3.21447844       8.77912985       9.94290504
H       -4.64051471      11.04688312       9.38269780
H       -4.00289536      10.14797102       8.41351550
Cs      -4.01776312      17.37784646       3.13180525
Pb      -8.51517992       9.03824925       6.26361050
Pb      -4.25758996      13.55737388       6.26361050
Pb      -8.51517992       9.03824925       0.00000000
Pb      -4.25758996      13.55737388       0.00000000
I       -6.88802678      11.77660615       6.73940693
I       -1.62715327      15.33814188       5.78781407
I       -2.63043669      10.81901698       5.78781407
I       -5.88474322      16.29573051       6.73940693
I       -1.62715327      15.33814188       0.47579643
I       -6.88802678      11.77660615      12.05142457
I       -5.88474322      16.29573051      12.05142457
I       -2.63043669      10.81901698       0.47579643
I       -0.65085743      18.03095477       9.39541575
I       -7.86432229       9.08379314       3.13180525
I       -4.90844765      13.60291762       3.13180525
I       -3.60673253      13.51182987       9.39541575
N       -0.21998643      12.65269102      15.17664816
C        0.73123356      12.29702086      16.23962625
H        1.29924704      13.19903510      16.47859556
H        1.30969588      11.68955229      15.76324244
H        0.14334225      11.83170105      16.99789331
C       -1.22268158      13.63827632      15.59694670
H       -1.72591476      13.28744470      16.33475940
H       -1.81468416      13.82361346      14.86491689
H       -0.78245338      14.44803261      15.86554309
H       -0.71049192      11.88685159      14.90362323
H        0.22748297      12.97064223      14.58816060
Cs      -8.27535305      14.25602593      21.92263675
N       -4.25215849       9.74861642      22.38657863
C       -4.94306831      10.91399257      21.81580266
H       -4.41037947      11.18880728      20.90251474
H       -4.75570516      11.57821810      22.48980394
H       -5.96965906      10.63121483      21.75874269
C       -4.31442215       8.55728871      21.53200955
H       -5.23152374       8.31338382      21.39013241
H       -3.85298935       7.83292429      21.95986528
H       -3.89904157       8.74715985      20.68758191
H       -4.65488714       9.49690441      23.20883101
H       -3.48348360       9.97384971      22.46434957
Cs      -4.01776312      17.37784646      15.65902625
Pb      -8.51517992       9.03824925      18.79083150
Pb      -4.25758996      13.55737388      18.79083150
Pb      -8.51517992       9.03824925      12.52722100
Pb      -4.25758996      13.55737388      12.52722100
I       -6.88802678      11.77660615      19.26662793
I       -1.62715327      15.33814188      18.31503507
I       -2.63043669      10.81901698      18.31503507
I       -5.88474322      16.29573051      19.26662793
I       -1.62715327      15.33814188      13.00301743
I       -6.88802678      11.77660615      24.57864556
I       -5.88474322      16.29573051      24.57864556
I       -2.63043669      10.81901698      13.00301743
I       -0.65085743      18.03095477      21.92263675
I       -7.86432229       9.08379314      15.65902625
I       -4.90844765      13.60291762      15.65902625
I       -3.60673253      13.51182987      21.92263675
Cs      -0.23982684      21.89697109       3.13180525
Cs      -8.27535305      23.29427518       9.39541575
N       -4.02251502      18.78942735       9.61856465
C       -5.09843822      19.73006753       9.96327969
H       -5.30665477      20.32280191       9.06958669
H       -4.64419788      20.29161521      10.60273896
H       -5.87165546      19.12924746      10.38548581
C       -4.40701725      17.81431579       8.59155818
H       -5.15592379      17.30130340       8.90244616
H       -3.66822505      17.22792182       8.41545380
H       -4.64788351      18.27674548       7.78546120
H       -3.77563194      18.27795922      10.37954913
H       -3.42391376      19.24573641       9.33378752
N       -4.17668753      26.62649369       2.67792566
C       -3.26695076      25.47403644       2.75184767
H       -2.34698452      25.81996701       3.22868046
H       -3.08895610      25.32891247       1.81491908
H       -3.83511376      24.69722534       3.21104585
C       -4.59069864      27.12816665       3.99335176
H       -5.04065534      26.43038705       4.47432645
H       -5.18509607      27.87261628       3.87858685
H       -3.81665532      27.40963224       4.48659022
H       -4.97863854      26.38506959       2.23044687
H       -3.76114098      27.20176689       2.29842434
Pb      -8.51517992      18.07649851       6.26361050
Pb      -4.25758996      22.59562313       6.26361050
Pb      -8.51517992      18.07649851       0.00000000
Pb      -4.25758996      22.59562313       0.00000000
I       -6.88802678      20.81485541       6.73940693
I       -1.62715327      24.37639113       5.78781407
I       -2.63043669      19.85726624       5.78781407
I       -5.88474322      25.33397976       6.73940693
I       -1.62715327      24.37639113       0.47579643
I       -6.88802678      20.81485541      12.05142457
I       -5.88474322      25.33397976      12.05142457
I       -2.63043669      19.85726624       0.47579643
I       -0.65085743      27.06920402       9.39541575
I       -7.86432229      18.12204239       3.13180525
I       -4.90844765      22.64116688       3.13180525
I       -3.60673253      22.55007912       9.39541575
Cs      -0.23982684      21.89697109      15.65902625
Cs      -8.27535305      23.29427518      21.92263675
N       -4.35389595      18.70863346      21.42212880
C       -5.73149325      18.50717440      21.89423375
H       -5.71356140      17.66545930      22.59034401
H       -6.15769853      18.21908524      21.07818723
H       -6.05315017      19.46420239      22.23736916
C       -3.42548211      19.10909923      22.48566146
H       -3.72414534      19.93262744      22.87719132
H       -2.54865577      19.23015808      22.11524970
H       -3.39682173      18.42582738      23.15943315
H       -4.32477727      19.40643369      20.77879746
H       -4.12283728      17.99561436      21.12911840
N       -3.55567482      26.36928958      15.41445613
C       -4.23645329      25.23982020      16.06413509
H       -4.27545586      25.45925081      17.13357623
H       -3.59077995      24.53771086      15.92016755
H       -5.14570503      25.11104492      15.52211494
C       -4.29256977      27.63384992      15.52075654
H       -5.15471454      27.53671913      15.11091992
H       -3.80231401      28.32759728      15.07460807
H       -4.40188817      27.86365567      16.44643950
H       -3.45925300      26.20497425      14.48421338
H       -2.85274906      26.44397643      15.79910754
Pb      -8.51517992      18.07649851      18.79083150
Pb      -4.25758996      22.59562313      18.79083150
Pb      -8.51517992      18.07649851      12.52722100
Pb      -4.25758996      22.59562313      12.52722100
I       -6.88802678      20.81485541      19.26662793
I       -1.62715327      24.37639113      18.31503507
I       -2.63043669      19.85726624      18.31503507
I       -5.88474322      25.33397976      19.26662793
I       -1.62715327      24.37639113      13.00301743
I       -6.88802678      20.81485541      24.57864556
I       -5.88474322      25.33397976      24.57864556
I       -2.63043669      19.85726624      13.00301743
I       -0.65085743      27.06920402      21.92263675
I       -7.86432229      18.12204239      15.65902625
I       -4.90844765      22.64116688      15.65902625
I       -3.60673253      22.55007912      21.92263675
Cs      -8.75500675      21.89697109       3.13180525
N       -0.21322854       5.13050249       9.14510600
C        1.05888207       4.51707669       8.73683337
H        1.71906977       5.32675973       8.41755149
H        0.77629465       4.02766998       7.95503821
H        1.34721985       3.89787438       9.55570911
C       -0.08870198       6.00859666      10.31423840
H        0.24519706       5.50385646      11.05884757
H       -0.94920482       6.37192249      10.53381472
H        0.51918718       6.72408458      10.11374422
H       -0.83812675       4.45968823       9.39240897
H       -0.45039198       5.56926455       8.51353589
N      -12.93725392      18.39133102       9.04536291
C      -11.93639447      18.76136878      10.05659760
H      -11.61622764      19.78193017       9.83450980
H      -11.21934485      18.15935322       9.82422860
H      -12.39457725      18.54854647      10.99568378
C      -14.15965135      19.20056161       9.11106807
H      -14.56459759      19.09818307       9.97491484
H      -14.77285331      18.90836438       8.43335965
H      -13.94013774      20.12406279       8.96750812
H      -13.21645173      17.49256833       9.17154727
H      -12.57928054      18.51684770       8.33561643
Cs       4.49741680       8.33959721       3.13180525
Pb       0.00000000       0.00000000       6.26361050
Pb       4.25758996       4.51912463       6.26361050
Pb       0.00000000       0.00000000       0.00000000
Pb       4.25758996       4.51912463       0.00000000
I        1.62715314       2.73835690       6.73940693
I      -10.14233318      24.37639113       5.78781407
I      -11.14561661      19.85726624       5.78781407
I        2.63043669       7.25748125       6.73940693
I      -10.14233318      24.37639113       0.47579643
I        1.62715314       2.73835690      12.05142457
I        2.63043669       7.25748125      12.05142457
I      -11.14561661      19.85726624       0.47579643
I        7.86432249       8.99270551       9.39541575
I      -16.37950221      18.12204239       3.13180525
I        3.60673227       4.56466837       3.13180525
I      -12.12191244      22.55007912       9.39541575
Cs      -8.75500675      21.89697109      15.65902625
N       -0.08958751       4.91355610      22.19552311
C        1.10365850       5.53533689      22.78780324
H        1.97382754       5.10020140      22.29097502
H        1.05827117       5.18528883      23.68556968
H        0.93401673       6.58608934      22.72262182
C       -0.26401045       5.22494622      20.77213292
H       -0.34260647       6.17466409      20.66009416
H       -1.05896638       4.79730377      20.44678452
H        0.49564628       4.90595233      20.27937063
H       -0.87434333       5.23013935      22.62631497
H        0.02068167       4.12059847      22.27736656
N      -13.32609913      19.14942124      21.72984502
C      -11.87267648      19.12971352      21.50980552
H      -11.39748987      19.25582691      22.48534047
H      -11.75885355      19.94529281      21.00735851
H      -11.68625508      18.24352719      20.94675268
C      -13.80862015      18.02547875      22.54061844
H      -13.58978993      17.19946669      22.10414226
H      -14.76039565      18.09109471      22.64310023
H      -13.39105118      18.05173443      23.40467684
H      -13.78568089      19.08519024      20.90140838
H      -13.47264256      19.83625675      22.12280996
Cs       4.49741680       8.33959721      15.65902625
Pb       0.00000000       0.00000000      18.79083150
Pb       4.25758996       4.51912463      18.79083150
Pb       0.00000000       0.00000000      12.52722100
Pb       4.25758996       4.51912463      12.52722100
I        1.62715314       2.73835690      19.26662793
I      -10.14233318      24.37639113      18.31503507
I      -11.14561661      19.85726624      18.31503507
I        2.63043669       7.25748125      19.26662793
I      -10.14233318      24.37639113      13.00301743
I        1.62715314       2.73835690      24.57864556
I        2.63043669       7.25748125      24.57864556
I      -11.14561661      19.85726624      13.00301743
I        7.86432249       8.99270551      21.92263675
I      -16.37950221      18.12204239      15.65902625
I        3.60673227       4.56466837      15.65902625
I      -12.12191244      22.55007912      21.92263675
Cs       8.27535308      12.85872184       3.13180525
N        0.32079477      13.99304301       8.94840888
C       -1.01311386      14.41631096       9.39871451
H       -1.22610728      13.87810944      10.32518538
H       -1.56227175      14.04572033       8.69752520
H       -0.98109027      15.48214750       9.40735258
C        1.39628748      14.37504630       9.87080560
H        1.40948813      15.32949635       9.96850361
H        2.23840965      14.07741993       9.52018708
H        1.24376255      13.96744020      10.72651790
H        0.53452557      14.40400102       8.11950542
H        0.28640757      13.19012706       8.90618400
N        3.70601258      10.12999262       9.24107271
C        4.44170799       9.27371384       8.29938163
H        5.50655399       9.44789001       8.47008899
H        4.19648131       9.68203274       7.46050275
H        4.04180873       8.29509246       8.43898263
C        3.93227105       9.77882478      10.64781187
H        3.65620217       8.87243892      10.79928696
H        3.42296728      10.36677325      11.20960437
H        4.86567854       9.86815247      10.85377581
H        2.77056720      10.04512575       9.10183249
H        3.98098607      10.87501800       9.11081833
N        4.37145099      16.87012509       3.17519402
C        3.85256697      17.90473854       4.08160317
H        4.70615585      18.31064748       4.62932508
H        3.33093618      17.36415588       4.68678905
H        3.27007041      18.55114521       3.46519111
C        5.27412924      17.39657328       2.14492654
H        4.80815198      18.04499560       1.61284785
H        5.57281014      16.67741461       1.58431518
H        6.03155184      17.81110237       2.56460115
H        3.65794848      16.45596501       2.70505162
H        4.78087718      16.36113984       3.64524046
Pb       0.00000000       9.03824925       6.26361050
Pb       4.25758996      13.55737388       6.26361050
Pb       0.00000000       9.03824925       0.00000000
Pb       4.25758996      13.55737388       0.00000000
I        1.62715314      11.77660615       6.73940693
I        6.88802665      15.33814188       5.78781407
I        5.88474322      10.81901698       5.78781407
I        2.63043669      16.29573051       6.73940693
I        6.88802665      15.33814188       0.47579643
I        1.62715314      11.77660615      12.05142457
I        2.63043669      16.29573051      12.05142457
I        5.88474322      10.81901698       0.47579643
I        7.86432249      18.03095477       9.39541575
I        0.65085762       9.08379314       3.13180525
I        3.60673227      13.60291762       3.13180525
I        4.90844739      13.51182987       9.39541575
Cs       8.27535308      12.85872184      15.65902625
N        0.32260593      14.47381449      21.45226803
C       -0.51107211      13.27859178      21.64634731
H        0.14460800      12.48415209      22.01011168
H       -0.75214480      13.08103788      20.73342088
H       -1.32805696      13.60162385      22.25074261
C        0.89901116      14.99161590      22.69848852
H        0.19267772      15.22276331      23.30541355
H        1.42484666      15.77114486      22.50739641
H        1.45650439      14.31917096      23.09682158
H       -0.19708274      15.18352335      21.09465749
H        0.91982102      14.24017416      20.96607283
N        4.12446346       9.98105735      22.37489090
C        3.65406832      10.68746050      21.17448839
H        4.42766295      10.57596207      20.41127493
H        3.66581540      11.59905941      21.48980993
H        2.67609206      10.30494389      20.98914779
C        4.26765053       8.53348881      22.18132028
H        3.41952947       8.15865859      21.93456735
H        4.57040440       8.13054340      22.99781257
H        4.90697620       8.36544446      21.48513502
H        3.50164655      10.08556640      23.08399261
H        4.84737976      10.29519798      22.53720889
N        4.64418361      17.04515913      15.28046371
C        5.05838125      18.45534970      15.31280621
H        4.15521756      19.05903694      15.19777399
H        5.56729488      18.50894176      14.49505745
H        5.64608756      18.55482831      16.19700808
C        3.78164974      16.66459328      16.40502218
H        4.24799379      16.81388266      17.23020698
H        3.55136517      15.73607103      16.33086021
H        2.98169439      17.19511191      16.38854333
H        5.40337541      16.47741820      15.33474389
H        4.23143587      16.96016354      14.59485851
Pb       0.00000000       9.03824925      18.79083150
Pb       4.25758996      13.55737388      18.79083150
Pb       0.00000000       9.03824925      12.52722100
Pb       4.25758996      13.55737388      12.52722100
I        1.62715314      11.77660615      19.26662793
I        6.88802665      15.33814188      18.31503507
I        5.88474322      10.81901698      18.31503507
I        2.63043669      16.29573051      19.26662793
I        6.88802665      15.33814188      13.00301743
I        1.62715314      11.77660615      24.57864556
I        2.63043669      16.29573051      24.57864556
I        5.88474322      10.81901698      13.00301743
I        7.86432249      18.03095477      21.92263675
I        0.65085762       9.08379314      15.65902625
I        3.60673227      13.60291762      15.65902625
I        4.90844739      13.51182987      21.92263675
N        7.80481072      22.07588179       2.98310488
C        8.06830619      21.53172443       4.32314446
H        8.32268262      20.47672497       4.19806800
H        7.18800219      21.58903455       4.71347595
H        8.78062247      22.19431326       4.75982421
C        8.98232250      22.06559752       2.10744112
H        9.68043503      22.59062167       2.50453378
H        8.74877657      22.43656461       1.25390478
H        9.28697846      21.16260838       1.99148643
H        7.53681591      22.98483173       3.04341304
H        7.24017564      21.59781891       2.66643068
N        0.36919142      22.95221543       9.77196707
C       -0.75177278      22.73779668       8.84530261
H       -1.48595708      23.52272936       9.04082610
H       -1.10093131      21.90325914       9.18028569
H       -0.30685235      22.66537349       7.87891328
C        1.08375825      24.21300804       9.54126587
H        1.43592034      24.22202416       8.64874438
H        1.80394098      24.29162651      10.17042447
H        0.47818344      24.94932767       9.65423790
H        1.01765749      22.26625737       9.66900309
H        0.03859220      22.97030392      10.50546309
Cs       4.01776312      18.77515055       9.39541575
Cs       4.49741680      26.41609572       3.13180525
Pb      -0.00000000      18.07649851       6.26361050
Pb       4.25758996      22.59562313       6.26361050
Pb      -0.00000000      18.07649851       0.00000000
Pb       4.25758996      22.59562313       0.00000000
I        1.62715314      20.81485541       6.73940693
I        6.88802665      24.37639113       5.78781407
I        5.88474322      19.85726624       5.78781407
I        2.63043669      25.33397976       6.73940693
I        6.88802665      24.37639113       0.47579643
I        1.62715314      20.81485541      12.05142457
I        2.63043669      25.33397976      12.05142457
I        5.88474322      19.85726624       0.47579643
I        7.86432249      27.06920402       9.39541575
I        0.65085762      18.12204239       3.13180525
I        3.60673227      22.64116688       3.13180525
I        4.90844739      22.55007912       9.39541575
Cs       8.27535308      21.89697109      15.65902625
Cs       0.23982687      23.29427518      21.92263675
Cs       4.01776312      18.77515055      21.92263675
Cs       4.49741680      26.41609572      15.65902625
Pb      -0.00000000      18.07649851      18.79083150
Pb       4.25758996      22.59562313      18.79083150
Pb      -0.00000000      18.07649851      12.52722100
Pb       4.25758996      22.59562313      12.52722100
I        1.62715314      20.81485541      19.26662793
I        6.88802665      24.37639113      18.31503507
I        5.88474322      19.85726624      18.31503507
I        2.63043669      25.33397976      19.26662793
I        6.88802665      24.37639113      13.00301743
I        1.62715314      20.81485541      24.57864556
I        2.63043669      25.33397976      24.57864556
I        5.88474322      19.85726624      13.00301743
I        7.86432249      27.06920402      21.92263675
I        0.65085762      18.12204239      15.65902625
I        3.60673227      22.64116688      15.65902625
I        4.90844739      22.55007912      21.92263675
N       -8.55609773      12.66148790       3.57572521
C       -9.98796877      12.94060511       3.39384045
H      -10.09206087      14.02067990       3.26743386
H      -10.32675922      12.70137868       4.26479968
H      -10.30361635      12.28858931       2.61131271
C       -7.74351221      12.99085947       2.39901542
H       -8.04829546      12.47904674       1.64678610
H       -6.82414063      12.78179587       2.57715263
H       -7.82697435      13.92724837       2.20443886
H       -8.41828593      11.73518185       3.73261146
H       -8.32499357      13.12638032       4.19062793
Cs       0.23982687      32.33252444       9.39541575
N        4.17856802      28.30932446       9.45650162
C        5.01594401      27.14840091       9.79161525
H        4.52359390      26.62244057      10.61279272
H        5.79996256      27.59028419      10.13893687
H        5.17685447      26.64237325       8.86687125
C        2.85454308      27.94387902       8.93994147
H        2.95615639      27.41686221       8.14456604
H        2.36061289      28.74061245       8.73516507
H        2.38155916      27.43552617       9.60289977
H        4.58846178      28.82478449       8.77244289
H        4.08693869      28.71219148      10.14711126
Cs     -12.53294304      17.37784646       3.13180525
Pb       0.00000000      27.11474776       6.26361050
Pb     -12.77276988      13.55737388       6.26361050
Pb       0.00000000      27.11474776       0.00000000
Pb     -12.77276988      13.55737388       0.00000000
I        1.62715314      29.85310466       6.73940693
I      -10.14233318      15.33814188       5.78781407
I        5.88474322      28.89551549       5.78781407
I      -14.39992314      16.29573051       6.73940693
I      -10.14233318      15.33814188       0.47579643
I        1.62715314      29.85310466      12.05142457
I      -14.39992314      16.29573051      12.05142457
I        5.88474322      28.89551549       0.47579643
I       -9.16603735      18.03095477       9.39541575
I        0.65085762      27.16029165       3.13180525
I        3.60673227      31.67941613       3.13180525
I      -12.12191244      13.51182987       9.39541575
Cs      -8.75500675      12.85872184      15.65902625
N        0.06052282      32.43805708      21.44071987
C       -0.76766525      32.56274988      22.64894145
H       -0.87477966      31.56079454      23.07082690
H       -1.61130279      32.82135224      22.25909691
H       -0.30453320      33.32864987      23.22860821
C        1.43001527      31.98850741      21.71607838
H        1.86003569      32.61457952      22.30243169
H        1.91946310      31.93282083      20.89265602
H        1.40530948      31.12403435      22.13288299
H        0.14754557      33.28105869      21.01244004
H       -0.30849356      31.88634480      20.98565953
Cs       4.01776312      27.81339981      21.92263675
Cs     -12.53294304      17.37784646      15.65902625
Pb       0.00000000      27.11474776      18.79083150
Pb     -12.77276988      13.55737388      18.79083150
Pb       0.00000000      27.11474776      12.52722100
Pb     -12.77276988      13.55737388      12.52722100
I        1.62715314      29.85310466      19.26662793
I      -10.14233318      15.33814188      18.31503507
I        5.88474322      28.89551549      18.31503507
I      -14.39992314      16.29573051      19.26662793
I      -10.14233318      15.33814188      13.00301743
I        1.62715314      29.85310466      24.57864556
I      -14.39992314      16.29573051      24.57864556
I        5.88474322      28.89551549      13.00301743
I       -9.16603735      18.03095477      21.92263675
I        0.65085762      27.16029165      15.65902625
I        3.60673227      31.67941613      15.65902625
I      -12.12191244      13.51182987      21.92263675
Cs      -0.23982684      30.93522034       3.13180525
Cs       8.75500679      14.25602593       9.39541575
Cs      -4.49741680      27.81339981       9.39541575
Cs      13.01259671      17.37784646       3.13180525
Pb       8.51517992       9.03824925       6.26361050
Pb      12.77276988      13.55737388       6.26361050
Pb       8.51517992       9.03824925       0.00000000
Pb      12.77276988      13.55737388       0.00000000
I       10.14233306      11.77660615       6.73940693
I       -1.62715327      33.41464039       5.78781407
I       -2.63043669      28.89551549       5.78781407
I       11.14561661      16.29573051       6.73940693
I       -1.62715327      33.41464039       0.47579643
I       10.14233306      11.77660615      12.05142457
I       11.14561661      16.29573051      12.05142457
I       -2.63043669      28.89551549       0.47579643
I       16.37950240      18.03095477       9.39541575
I       -7.86432229      27.16029165       3.13180525
I       12.12191219      13.60291762       3.13180525
I       -3.60673253      31.58832838       9.39541575
Cs      -0.23982684      30.93522034      15.65902625
Cs       8.75500679      14.25602593      21.92263675
Cs      -4.49741680      27.81339981      21.92263675
N       12.73251751      17.74869586      15.41498255
C       12.99728822      16.42755637      14.82699437
H       14.07572740      16.35595673      14.66819331
H       12.56850927      16.52692792      13.96859344
H       12.51557135      15.73069131      15.47463284
C       13.32932585      17.92599338      16.74382121
H       12.97851460      17.26340814      17.34265868
H       13.11719419      18.80122941      17.07495050
H       14.28248255      17.82946329      16.68197968
H       11.79893713      17.87569978      15.53307550
H       13.06414080      18.27794093      14.90747384
Pb       8.51517992       9.03824925      18.79083150
Pb      12.77276988      13.55737388      18.79083150
Pb       8.51517992       9.03824925      12.52722100
Pb      12.77276988      13.55737388      12.52722100
I       10.14233306      11.77660615      19.26662793
I       -1.62715327      33.41464039      18.31503507
I       -2.63043669      28.89551549      18.31503507
I       11.14561661      16.29573051      19.26662793
I       -1.62715327      33.41464039      13.00301743
I       10.14233306      11.77660615      24.57864556
I       11.14561661      16.29573051      24.57864556
I       -2.63043669      28.89551549      13.00301743
I       16.37950240      18.03095477      21.92263675
I       -7.86432229      27.16029165      15.65902625
I       12.12191219      13.60291762      15.65902625
I       -3.60673253      31.58832838      21.92263675
N       -0.33672519       3.94231642       3.63309932
C       -0.41831553       2.57015085       3.11180493
H       -1.23035626       2.55086872       2.38133016
H       -0.70732719       2.09782265       3.90171415
H        0.57261596       2.32910767       2.80025939
C        0.03774644       4.93147186       2.61586320
H        0.89591983       4.70541531       2.25099211
H        0.07971586       5.80202638       3.01718347
H       -0.61807984       4.93345968       1.91476545
H        0.33060648       3.99996850       4.30614684
H       -1.07588573       4.11211108       3.90226639
N        9.00154239      23.68455301       9.14554703
C        9.67752859      22.44819344       9.56471386
H        9.65135498      22.42104419      10.65647996
H       10.58138248      22.63762102       9.28588850
H        9.20645921      21.66898291       9.00970734
C        7.57716253      23.71848678       9.49685505
H        7.12700041      22.98211020       9.07757275
H        7.19290947      24.54355627       9.19305496
H        7.48094668      23.65226102      10.44974895
H        9.03589919      23.77488516       8.20092648
H        9.38062352      24.27737240       9.53606221
Cs      12.53294304      18.77515055       9.39541575
N       -4.44193794       8.63433649       3.03834166
C       -3.47329978       8.93847189       4.10158431
H       -3.51832383       8.11884780       4.82239257
H       -3.88414625       9.71611147       4.49789240
H       -2.55669521       9.14201067       3.59609872
C       -4.10684182       7.42903259       2.27128240
H       -3.24679095       7.54041189       1.86067165
H       -4.76996263       7.28803077       1.59225821
H       -4.08513802       6.67091161       2.85986684
H       -4.47028276       9.34221433       2.40608078
H       -5.14271816       8.51658704       3.41607381
Pb       8.51517992      18.07649851       6.26361050
Pb      -4.25758996       4.51912463       6.26361050
Pb       8.51517992      18.07649851       0.00000000
Pb      -4.25758996       4.51912463       0.00000000
I       10.14233306      20.81485541       6.73940693
I       -1.62715327       6.29989263       5.78781407
I       14.39992314      19.85726624       5.78781407
I       -5.88474322       7.25748125       6.73940693
I       -1.62715327       6.29989263       0.47579643
I       10.14233306      20.81485541      12.05142457
I       -5.88474322       7.25748125      12.05142457
I       14.39992314      19.85726624       0.47579643
I       -0.65085743       8.99270551       9.39541575
I        9.16603754      18.12204239       3.13180525
I       12.12191219      22.64116688       3.13180525
I       -3.60673253       4.47358062       9.39541575
Cs      -0.23982684       3.82047258      15.65902625
N        8.29815645      23.30387860      21.66432200
C        8.75110412      22.14577346      22.44846108
H        9.65141444      21.76097752      21.96395231
H        8.02869455      21.52783648      22.28458141
H        8.80540802      22.49273020      23.45532739
C        9.24793139      24.42247506      21.67413550
H        9.38626280      24.71630067      22.57703361
H        8.89441614      25.14612393      21.15255728
H       10.08378035      24.13584309      21.29883728
H        7.48991746      23.64930684      22.02359536
H        8.22145034      23.03354532      20.91021622
Cs      12.53294304      18.77515055      21.92263675
N       -4.51747894       8.49541155      15.61982226
C       -3.38238299       9.33154225      15.20306597
H       -2.80226286       9.55769684      16.10066837
H       -3.84432519      10.13268229      14.92854405
H       -2.92181576       8.79992478      14.40158713
C       -4.11464055       7.19021909      16.15612505
H       -3.62525302       6.70704837      15.48699132
H       -4.89622420       6.69165829      16.40360976
H       -3.55935401       7.31923600      16.92856380
H       -5.07790446       8.30658062      14.87691285
H       -4.88762083       8.91270163      16.19991140
Pb       8.51517992      18.07649851      18.79083150
Pb      -4.25758996       4.51912463      18.79083150
Pb       8.51517992      18.07649851      12.52722100
Pb      -4.25758996       4.51912463      12.52722100
I       10.14233306      20.81485541      19.26662793
I       -1.62715327       6.29989263      18.31503507
I       14.39992314      19.85726624      18.31503507
I       -5.88474322       7.25748125      19.26662793
I       -1.62715327       6.29989263      13.00301743
I       10.14233306      20.81485541      24.57864556
I       -5.88474322       7.25748125      24.57864556
I       14.39992314      19.85726624      13.00301743
I       -0.65085743       8.99270551      21.92263675
I        9.16603754      18.12204239      15.65902625
I       12.12191219      22.64116688      15.65902625
I       -3.60673253       4.47358062      21.92263675
