640
Lattice="17.030359838682134 18.07649850800878 0.0 -17.030359838682134 18.07649850800878 0.0 0.0 0.0 25.054441994943765" Properties=species:S:1:pos:R:3 pbc="T T T"
Cs      -0.23982684      12.85872184       3.13180525
N       -8.64636736      14.48492098       9.10303518
C       -7.21439549      14.78507343       8.95947945
H       -6.88636964      15.24489047       9.89454238
H       -7.24419060      15.46728618       8.27810125
H       -6.76703773      13.87148009       8.63959524
C       -8.93230484      13.48898739      10.14216118
H       -8.48096271      12.66884481       9.93156561
H       -9.87811693      13.33259036      10.18295358
H       -8.62484925      13.81505742      10.99116030
H       -8.98918300      14.12054447       8.29596920
H       -8.99056287      15.18264999       9.30880961
N       -4.32947730       9.57959822       8.92362869
C       -3.49130298       9.52910077      10.13034200
H       -3.33445187      10.55969458      10.45691430
H       -2.66523226       9.19801267       9.75809736
H       -3.97983383       8.84131745      10.78256847
C       -5.67398270      10.11384593       9.16921248
H       -6.12318685       9.56427727       9.81487801
H       -6.17160642      10.11573852       8.34881525
H       -5.60557783      11.01092965       9.50419264
H       -4.45934244       8.70563128       8.57582828
H       -3.94271039      10.07000037       8.41612842
N       -3.72922206      17.26850408       2.70716510
C       -4.03553960      16.27399081       3.74560436
H       -3.55591776      16.61222055       4.66698315
H       -3.54824264      15.51210053       3.40998091
H       -5.09517857      16.15760888       3.71861991
C       -4.30558308      18.59066717       2.97757131
H       -5.26024200      18.51652278       3.03940186
H       -4.07655803      19.19071205       2.26470510
H       -3.95618007      18.92882993       3.80534761
H       -4.09107734      16.99573635       1.87271510
H       -2.92683941      17.33005203       2.70138801
Pb      -8.51517992       9.03824925       6.26361050
Pb      -4.25758996      13.55737388       6.26361050
Pb      -8.51517992       9.03824925       0.00000000
Pb      -4.25758996      13.55737388       0.00000000
I       -6.88802678      11.77660615       6.73940693
I       -1.62715327      15.33814188       5.78781407
I       -2.63043669      10.81901698       5.78781407
I       -5.88474322      16.29573051       6.73940693
I       -1.62715327      15.33814188       0.47579643
I       -6.88802678      11.77660615      12.05142457
I       -5.88474322      16.29573051      12.05142457
I       -2.63043669      10.81901698       0.47579643
I       -0.65085743      18.03095477       9.39541575
I       -7.86432229       9.08379314       3.13180525
I       -4.90844765      13.60291762       3.13180525
I       -3.60673253      13.51182987       9.39541575
Cs      -0.23982684      12.85872184      15.65902625
Cs      -8.27535305      14.25602593      21.92263675
Cs      -4.49741680       9.73690130      21.92263675
N       -4.41679706      17.65066519      15.86365473
C       -4.25011614      16.20362385      16.06248131
H       -4.34963615      15.73034765      15.08295043
H       -5.03982016      16.00405386      16.57931554
H       -3.33823212      16.09829262      16.60514189
C       -3.36292561      18.25120463      15.03774061
H       -2.51041066      18.10926362      15.45459195
H       -3.52364267      19.19311128      14.95018229
H       -3.36638224      17.84370785      14.16849694
H       -4.38042579      18.10413687      16.69713469
H       -5.12283385      17.73381712      15.48651119
Pb      -8.51517992       9.03824925      18.79083150
Pb      -4.25758996      13.55737388      18.79083150
Pb      -8.51517992       9.03824925      12.52722100
Pb      -4.25758996      13.55737388      12.52722100
I       -6.88802678      11.77660615      19.26662793
I       -1.62715327      15.33814188      18.31503507
I       -2.63043669      10.81901698      18.31503507
I       -5.88474322      16.29573051      19.26662793
I       -1.62715327      15.33814188      13.00301743
I       -6.88802678      11.77660615      24.57864556
I       -5.88474322      16.29573051      24.57864556
I       -2.63043669      10.81901698      13.00301743
I       -0.65085743      18.03095477      21.92263675
I       -7.86432229       9.08379314      15.65902625
I       -4.90844765      13.60291762      15.65902625
I       -3.60673253      13.51182987      21.92263675
N       -0.62030955      21.69493560       3.43171444
C       -0.26594817      21.15126530       2.11258829
H       -0.49593310      21.92257256       1.37396296
H       -0.91910793      20.44610000       2.03071972
H        0.73731319      20.80404279       2.21264240
C        0.19019906      22.85443839       3.82165784
H        1.11584881      22.60306178       3.84766514
H       -0.08362344      23.15804597       4.68971789
H        0.06764189      23.56007340       3.18235423
H       -0.47720791      21.04225015       4.10637872
H       -1.38921705      21.92379223       3.36811144
Cs      -8.27535305      23.29427518       9.39541575
Cs      -4.49741680      18.77515055       9.39541575
Cs      -4.01776312      26.41609572       3.13180525
Pb      -8.51517992      18.07649851       6.26361050
Pb      -4.25758996      22.59562313       6.26361050
Pb      -8.51517992      18.07649851       0.00000000
Pb      -4.25758996      22.59562313       0.00000000
I       -6.88802678      20.81485541       6.73940693
I       -1.62715327      24.37639113       5.78781407
I       -2.63043669      19.85726624       5.78781407
I       -5.88474322      25.33397976       6.73940693
I       -1.62715327      24.37639113       0.47579643
I       -6.88802678      20.81485541      12.05142457
I       -5.88474322      25.33397976      12.05142457
I       -2.63043669      19.85726624       0.47579643
I       -0.65085743      27.06920402       9.39541575
I       -7.86432229      18.12204239       3.13180525
I       -4.90844765      22.64116688       3.13180525
I       -3.60673253      22.55007912       9.39541575
N       -0.67617583      21.60541436      15.67021494
C        0.24361676      21.62745460      14.52359425
H        0.22130344      22.63919576      14.11218534
H       -0.21933359      21.04012097      13.91425492
H        1.16240563      21.23230245      14.89344480
C       -0.25532669      22.47794941      16.77248323
H        0.60915493      22.20318828      17.08532807
H       -0.89000111      22.41544518      17.48939757
H       -0.21046213      23.38557682      16.46288706
H       -0.72372889      20.73116200      16.03773335
H       -1.38038531      21.86892303      15.38334975
N       -7.76389613      23.24470447      21.81546623
C       -8.72464318      23.84398525      20.87787846
H       -9.42757727      23.05848757      20.59108167
H       -8.14797077      24.02650607      20.12640437
H       -9.08755088      24.71827518      21.36881916
C       -8.37602907      22.79897427      23.07246450
H       -8.78555056      23.54746529      23.51149457
H       -7.70030129      22.42446845      23.64151803
H       -9.04213608      22.13336262      22.88561510
H       -7.10356815      23.88091911      22.06213641
H       -7.46207188      22.60522154      21.43127469
Cs      -4.49741680      18.77515055      21.92263675
Cs      -4.01776312      26.41609572      15.65902625
Pb      -8.51517992      18.07649851      18.79083150
Pb      -4.25758996      22.59562313      18.79083150
Pb      -8.51517992      18.07649851      12.52722100
Pb      -4.25758996      22.59562313      12.52722100
I       -6.88802678      20.81485541      19.26662793
I       -1.62715327      24.37639113      18.31503507
I       -2.63043669      19.85726624      18.31503507
I       -5.88474322      25.33397976      19.26662793
I       -1.62715327      24.37639113      13.00301743
I       -6.88802678      20.81485541      24.57864556
I       -5.88474322      25.33397976      24.57864556
I       -2.63043669      19.85726624      13.00301743
I       -0.65085743      27.06920402      21.92263675
I       -7.86432229      18.12204239      15.65902625
I       -4.90844765      22.64116688      15.65902625
I       -3.60673253      22.55007912      21.92263675
N       -9.12139633      21.78167915       3.48957250
C       -8.91674038      23.13797506       2.96059187
H       -7.92068844      23.45900930       3.27394933
H       -9.57054967      23.62820316       3.47322045
H       -9.14251051      23.07042348       1.92060520
C       -8.20140752      20.78923067       2.92203978
H       -8.31796983      20.75294208       1.97030955
H       -8.38813824      19.92752132       3.30055424
H       -7.29680632      21.03871491       3.12478197
H       -9.99444332      21.47383009       3.27822869
H       -8.98700230      21.83927680       4.28093853
N        0.15199081       5.32585909       8.88931894
C       -0.05065513       3.99076662       9.47044361
H        0.92744856       3.62945194       9.79623531
H       -0.31336148       3.49452719       8.68602660
H       -0.82994989       4.11258272      10.18805643
C        0.62472928       6.31917070       9.86054352
H       -0.01613260       6.40279156      10.56976679
H        0.73158063       7.16692095       9.42398097
H        1.46798520       6.03685585      10.22230022
H       -0.66762730       5.66602761       8.55144351
H        0.71414409       5.22796013       8.32183420
N      -12.97976606      18.25151959       9.37917622
C      -11.80012004      19.12882714       9.37602911
H      -11.83267396      19.70900708       8.45098488
H      -11.09417840      18.47560428       9.30170190
H      -11.82520390      19.63588870      10.31377483
C      -14.25079351      18.98325863       9.42891565
H      -14.28105692      19.51737075      10.22547225
H      -14.97896636      18.35842494       9.43454810
H      -14.32294287      19.55198396       8.65885325
H      -12.97358818      17.69381197      10.14766326
H      -12.94189987      17.84135808       8.68782022
Cs       4.49741680       8.33959721       3.13180525
Pb       0.00000000       0.00000000       6.26361050
Pb       4.25758996       4.51912463       6.26361050
Pb       0.00000000       0.00000000       0.00000000
Pb       4.25758996       4.51912463       0.00000000
I        1.62715314       2.73835690       6.73940693
I      -10.14233318      24.37639113       5.78781407
I      -11.14561661      19.85726624       5.78781407
I        2.63043669       7.25748125       6.73940693
I      -10.14233318      24.37639113       0.47579643
I        1.62715314       2.73835690      12.05142457
I        2.63043669       7.25748125      12.05142457
I      -11.14561661      19.85726624       0.47579643
I        7.86432249       8.99270551       9.39541575
I      -16.37950221      18.12204239       3.13180525
I        3.60673227       4.56466837       3.13180525
I      -12.12191244      22.55007912       9.39541575
Cs      -8.75500675      21.89697109      15.65902625
N        0.65708599       5.10183519      22.21925664
C       -0.46813528       4.17643229      22.02240709
H       -1.35005911       4.64233337      22.46796505
H       -0.19385770       3.44238511      22.58501245
H       -0.46543050       3.94922190      20.98054541
C        0.49548260       6.37600490      21.50946604
H        0.41479350       6.20932181      20.56797782
H        1.26095719       6.93131096      21.67184948
H       -0.29493263       6.82012741      21.82513848
H        1.45969054       4.72062593      21.88436305
H        0.67882661       5.24524060      23.01083839
Cs     -13.01259671      18.77515055      21.92263675
N        4.50942909       8.53749359      15.17299777
C        4.73730317       7.11474498      15.46472188
H        5.65270560       7.05006775      16.05736897
H        4.92298076       6.78022167      14.57917333
H        3.81950250       6.76269096      15.87801058
C        4.24957861       9.34425039      16.37093265
H        3.47031076       9.00885982      16.81920583
H        4.10373133      10.25754902      16.11539644
H        5.00525542       9.29367429      16.96088582
H        3.74385287       8.64219096      14.62111028
H        5.18882544       8.79540829      14.82725211
Pb       0.00000000       0.00000000      18.79083150
Pb       4.25758996       4.51912463      18.79083150
Pb       0.00000000       0.00000000      12.52722100
Pb       4.25758996       4.51912463      12.52722100
I        1.62715314       2.73835690      19.26662793
I      -10.14233318      24.37639113      18.31503507
I      -11.14561661      19.85726624      18.31503507
I        2.63043669       7.25748125      19.26662793
I      -10.14233318      24.37639113      13.00301743
I        1.62715314       2.73835690      24.57864556
I        2.63043669       7.25748125      24.57864556
I      -11.14561661      19.85726624      13.00301743
I        7.86432249       8.99270551      21.92263675
I      -16.37950221      18.12204239      15.65902625
I        3.60673227       4.56466837      15.65902625
I      -12.12191244      22.55007912      21.92263675
Cs       8.27535308      12.85872184       3.13180525
Cs       0.23982687      14.25602593       9.39541575
Cs       4.01776312       9.73690130       9.39541575
N        4.40083212      17.77111033       3.46579011
C        3.45380544      16.67248770       3.22618223
H        3.13589335      16.74295647       2.18342559
H        2.71922929      16.94653985       3.78820673
H        3.95352493      15.79288861       3.56336695
C        5.63474098      17.65955786       2.67937306
H        6.07905394      16.83738005       2.89686718
H        6.21139616      18.39882143       2.88343861
H        5.41991439      17.66990687       1.74374891
H        4.67474556      17.77763302       4.37495300
H        4.01104956      18.43996024       3.24590651
Pb       0.00000000       9.03824925       6.26361050
Pb       4.25758996      13.55737388       6.26361050
Pb       0.00000000       9.03824925       0.00000000
Pb       4.25758996      13.55737388       0.00000000
I        1.62715314      11.77660615       6.73940693
I        6.88802665      15.33814188       5.78781407
I        5.88474322      10.81901698       5.78781407
I        2.63043669      16.29573051       6.73940693
I        6.88802665      15.33814188       0.47579643
I        1.62715314      11.77660615      12.05142457
I        2.63043669      16.29573051      12.05142457
I        5.88474322      10.81901698       0.47579643
I        7.86432249      18.03095477       9.39541575
I        0.65085762       9.08379314       3.13180525
I        3.60673227      13.60291762       3.13180525
I        4.90844739      13.51182987       9.39541575
N        8.71698582      12.81161386      15.37925434
C        7.61067064      11.84682118      15.29872504
H        7.52484628      11.37262003      16.27910394
H        7.98044945      11.20497808      14.68076119
H        6.78529360      12.39841597      14.90936199
C        8.46472373      13.91142320      16.31744944
H        7.67854977      14.38954867      16.04538220
H        9.21678978      14.50730178      16.32060183
H        8.33429056      13.55590531      17.19963103
H        8.85901041      13.22135420      14.53451168
H        9.35040054      12.38808727      15.63819537
Cs       0.23982687      14.25602593      21.92263675
Cs       4.01776312       9.73690130      21.92263675
N        3.99680339      17.50681147      15.75004934
C        4.40424203      16.19279849      15.23177641
H        4.84672648      16.35815651      14.24676901
H        3.54299729      15.77479386      15.11299983
H        4.99508755      15.75716057      16.00522894
C        5.12400030      18.41709868      15.98292507
H        5.72521665      18.02486586      16.61962466
H        4.79541544      19.25133982      16.32462415
H        5.58776218      18.57011522      15.15638954
H        3.56596554      17.41029773      16.59071106
H        3.52067873      17.82122066      15.18251818
Pb       0.00000000       9.03824925      18.79083150
Pb       4.25758996      13.55737388      18.79083150
Pb       0.00000000       9.03824925      12.52722100
Pb       4.25758996      13.55737388      12.52722100
I        1.62715314      11.77660615      19.26662793
I        6.88802665      15.33814188      18.31503507
I        5.88474322      10.81901698      18.31503507
I        2.63043669      16.29573051      19.26662793
I        6.88802665      15.33814188      13.00301743
I        1.62715314      11.77660615      24.57864556
I        2.63043669      16.29573051      24.57864556
I        5.88474322      10.81901698      13.00301743
I        7.86432249      18.03095477      21.92263675
I        0.65085762       9.08379314      15.65902625
I        3.60673227      13.60291762      15.65902625
I        4.90844739      13.51182987      21.92263675
Cs       8.27535308      21.89697109       3.13180525
Cs       0.23982687      23.29427518       9.39541575
Cs       4.01776312      18.77515055       9.39541575
Cs       4.49741680      26.41609572       3.13180525
Pb      -0.00000000      18.07649851       6.26361050
Pb       4.25758996      22.59562313       6.26361050
Pb      -0.00000000      18.07649851       0.00000000
Pb       4.25758996      22.59562313       0.00000000
I        1.62715314      20.81485541       6.73940693
I        6.88802665      24.37639113       5.78781407
I        5.88474322      19.85726624       5.78781407
I        2.63043669      25.33397976       6.73940693
I        6.88802665      24.37639113       0.47579643
I        1.62715314      20.81485541      12.05142457
I        2.63043669      25.33397976      12.05142457
I        5.88474322      19.85726624       0.47579643
I        7.86432249      27.06920402       9.39541575
I        0.65085762      18.12204239       3.13180525
I        3.60673227      22.64116688       3.13180525
I        4.90844739      22.55007912       9.39541575
N        7.84759882      21.63463601      15.50495630
C        7.79468838      22.79500402      16.40606102
H        8.31414926      22.51326022      17.32484074
H        6.84848723      22.83300575      16.59001068
H        8.15788607      23.61494490      15.82909305
C        9.20917283      21.28406156      15.08467000
H        9.60385775      22.02891494      14.62629101
H        9.17673787      20.52675737      14.49634788
H        9.73656515      21.06710247      15.85696283
H        7.37007653      21.81685476      14.70469567
H        7.53941877      21.02285529      15.92731734
Cs       0.23982687      23.29427518      21.92263675
N        4.13839247      18.84092349      22.42924650
C        4.21524893      17.53957693      21.74966325
H        3.19862465      17.26974646      21.45463458
H        4.48062772      16.97234182      22.48341843
H        4.96432640      17.65842589      21.00008635
C        3.69012247      19.93036047      21.55425629
H        4.29897647      20.02004462      20.81808538
H        3.66644710      20.75041596      22.05188369
H        2.81169847      19.73249691      21.22128269
H        4.99622724      19.09966176      22.74360663
H        3.59981442      18.74168908      23.01892917
Cs       4.49741680      26.41609572      15.65902625
Pb      -0.00000000      18.07649851      18.79083150
Pb       4.25758996      22.59562313      18.79083150
Pb      -0.00000000      18.07649851      12.52722100
Pb       4.25758996      22.59562313      12.52722100
I        1.62715314      20.81485541      19.26662793
I        6.88802665      24.37639113      18.31503507
I        5.88474322      19.85726624      18.31503507
I        2.63043669      25.33397976      19.26662793
I        6.88802665      24.37639113      13.00301743
I        1.62715314      20.81485541      24.57864556
I        2.63043669      25.33397976      24.57864556
I        5.88474322      19.85726624      13.00301743
I        7.86432249      27.06920402      21.92263675
I        0.65085762      18.12204239      15.65902625
I        3.60673227      22.64116688      15.65902625
I        4.90844739      22.55007912      21.92263675
Cs      -8.75500675      12.85872184       3.13180525
Cs       0.23982687      32.33252444       9.39541575
Cs       4.01776312      27.81339981       9.39541575
N      -12.70921061      17.86004642       3.02251707
C      -13.17648785      16.65730158       2.31803144
H      -12.31993556      16.24698797       1.77827569
H      -13.78057261      17.05117919       1.67731289
H      -13.65894185      16.06578722       3.06264983
C      -11.70399194      17.57842581       4.05385216
H      -12.07517387      16.98198201       4.70743675
H      -11.44468652      18.39841001       4.47937674
H      -10.93501835      17.17106246       3.64840816
H      -13.43167505      18.27860871       3.47473276
H      -12.37739694      18.32392401       2.45475241
Pb       0.00000000      27.11474776       6.26361050
Pb     -12.77276988      13.55737388       6.26361050
Pb       0.00000000      27.11474776       0.00000000
Pb     -12.77276988      13.55737388       0.00000000
I        1.62715314      29.85310466       6.73940693
I      -10.14233318      15.33814188       5.78781407
I        5.88474322      28.89551549       5.78781407
I      -14.39992314      16.29573051       6.73940693
I      -10.14233318      15.33814188       0.47579643
I        1.62715314      29.85310466      12.05142457
I      -14.39992314      16.29573051      12.05142457
I        5.88474322      28.89551549       0.47579643
I       -9.16603735      18.03095477       9.39541575
I        0.65085762      27.16029165       3.13180525
I        3.60673227      31.67941613       3.13180525
I      -12.12191244      13.51182987       9.39541575
N       -9.00833243      12.84014866      15.19966571
C       -9.59512709      13.42238854      16.41535972
H       -9.70517231      12.61215830      17.13978525
H      -10.47129960      13.66275219      16.09112941
H       -8.97624636      14.25755613      16.65324498
C       -7.65214990      12.31650773      15.39965558
H       -7.07574532      13.02560908      15.69227664
H       -7.32342400      11.95724187      14.57288362
H       -7.67127433      11.62414653      16.06442647
H       -8.93185827      13.50065119      14.52177457
H       -9.49554536      12.23212691      14.99823942
N        0.02695721      32.19987264      22.38374516
C        0.19895002      33.59467159      21.95223904
H        1.27307040      33.77685536      21.87192815
H       -0.13250339      34.06199112      22.72833783
H       -0.41628657      33.69861512      21.08749206
C        0.51039891      31.22182231      21.40235407
H        0.03310308      31.33406922      20.57756115
H        0.36568702      30.33457500      21.73781680
H        1.44858735      31.35764978      21.25068509
H       -0.89385562      32.00495708      22.50928380
H        0.46184077      32.13022037      23.05729121
Cs       4.01776312      27.81339981      21.92263675
N      -12.69116208      17.74300896      15.31674852
C      -12.81206526      16.30016058      15.06216230
H      -11.79839520      15.89632573      15.00957174
H      -13.18375188      16.30822762      14.17201500
H      -13.48202655      15.93877561      15.80892894
C      -12.08430552      18.05737737      16.61533406
H      -12.61847188      17.67997577      17.31742264
H      -12.03867881      19.00959583      16.72434217
H      -11.19891678      17.68811967      16.65255831
H      -13.54967719      18.14853617      15.32890481
H      -12.21492987      18.02326331      14.73168458
Pb       0.00000000      27.11474776      18.79083150
Pb     -12.77276988      13.55737388      18.79083150
Pb       0.00000000      27.11474776      12.52722100
Pb     -12.77276988      13.55737388      12.52722100
I        1.62715314      29.85310466      19.26662793
I      -10.14233318      15.33814188      18.31503507
I        5.88474322      28.89551549      18.31503507
I      -14.39992314      16.29573051      19.26662793
I      -10.14233318      15.33814188      13.00301743
I        1.62715314      29.85310466      24.57864556
I      -14.39992314      16.29573051      24.57864556
I        5.88474322      28.89551549      13.00301743
I       -9.16603735      18.03095477      21.92263675
I        0.65085762      27.16029165      15.65902625
I        3.60673227      31.67941613      15.65902625
I      -12.12191244      13.51182987      21.92263675
N       -0.04119505      31.19639753       3.54151593
C        0.45646682      29.88149362       3.11186081
H       -0.35728769      29.16677650       3.25454358
H        1.12769195      29.71787731       3.78511023
H        0.85174887      30.03712897       2.13378239
C       -1.14477855      31.70060851       2.71610602
H       -0.85196227      31.78153289       1.80593904
H       -1.42000855      32.56028079       3.04152356
H       -1.88370772      31.08942720       2.76183581
H        0.64741832      31.84689207       3.47581371
H       -0.30636031      31.08832073       4.29361050
N        8.33115365      14.56551918       9.38575126
C        9.11474709      14.31770515      10.60469042
H        9.01747440      13.25530767      10.83969034
H        8.60287380      14.82079078      11.24925913
H       10.08022894      14.72393749      10.40487117
C        8.84871853      13.86203657       8.20648639
H        9.75041592      14.14295548       8.03701535
H        8.30098824      14.06778407       7.44599704
H        8.83260568      12.91547541       8.36589925
H        8.35018253      15.48856377       9.16377183
H        7.59189029      14.29242551       9.54868980
Cs      -4.49741680      27.81339981       9.39541575
Cs      13.01259671      17.37784646       3.13180525
Pb       8.51517992       9.03824925       6.26361050
Pb      12.77276988      13.55737388       6.26361050
Pb       8.51517992       9.03824925       0.00000000
Pb      12.77276988      13.55737388       0.00000000
I       10.14233306      11.77660615       6.73940693
I       -1.62715327      33.41464039       5.78781407
I       -2.63043669      28.89551549       5.78781407
I       11.14561661      16.29573051       6.73940693
I       -1.62715327      33.41464039       0.47579643
I       10.14233306      11.77660615      12.05142457
I       11.14561661      16.29573051      12.05142457
I       -2.63043669      28.89551549       0.47579643
I       16.37950240      18.03095477       9.39541575
I       -7.86432229      27.16029165       3.13180525
I       12.12191219      13.60291762       3.13180525
I       -3.60673253      31.58832838       9.39541575
N       -0.23299933      31.43980359      15.80352570
C       -1.19840563      30.89598302      14.83735126
H       -0.62953862      30.56337061      13.96606792
H       -1.68052084      31.69689390      14.59926531
H       -1.77683023      30.18844069      15.38682053
C        0.70597458      30.43616540      16.31778748
H        0.21720963      29.73569576      16.75498900
H        1.30324677      30.84936913      16.94485460
H        1.21130293      30.06782820      15.58935005
H       -0.68586739      31.78242090      16.56455932
H        0.17976032      32.00025435      15.39959024
Cs       8.75500679      14.25602593      21.92263675
Cs      -4.49741680      27.81339981      21.92263675
N       13.47459810      17.49745331      15.44044015
C       12.99007766      18.11976229      16.68109105
H       12.09435998      18.69092021      16.42644660
H       13.70697105      18.74012571      16.85939227
H       12.92051838      17.32271054      17.38605747
C       12.54042471      16.51622796      14.87657518
H       12.38819959      15.81634613      15.51507888
H       12.91427801      16.14306476      14.07553368
H       11.70833261      16.94837423      14.67036541
H       14.28022364      17.02190989      15.60314915
H       13.56257398      18.10362146      14.91846327
Pb       8.51517992       9.03824925      18.79083150
Pb      12.77276988      13.55737388      18.79083150
Pb       8.51517992       9.03824925      12.52722100
Pb      12.77276988      13.55737388      12.52722100
I       10.14233306      11.77660615      19.26662793
I       -1.62715327      33.41464039      18.31503507
I       -2.63043669      28.89551549      18.31503507
I       11.14561661      16.29573051      19.26662793
I       -1.62715327      33.41464039      13.00301743
I       10.14233306      11.77660615      24.57864556
I       11.14561661      16.29573051      24.57864556
I       -2.63043669      28.89551549      13.00301743
I       16.37950240      18.03095477      21.92263675
I       -7.86432229      27.16029165      15.65902625
I       12.12191219      13.60291762      15.65902625
I       -3.60673253      31.58832838      21.92263675
N       -0.75956448       3.85423542       3.19710309
C       -0.10267607       2.68932861       2.58658452
H        0.36051473       3.03071446       1.65799132
H       -0.87072768       2.14978303       2.36395135
H        0.50900052       2.27680097       3.35650682
C        0.17861839       4.90810994       3.60032535
H        0.80086609       4.55457164       4.23947519
H       -0.30790093       5.63475196       3.99526189
H        0.65575875       5.22385891       2.82942342
H       -1.21487794       3.59780582       3.98993459
H       -1.24936154       4.14474173       2.62846931
N        8.26002150      23.14512107       9.48637495
C        8.72129072      23.63782425       8.18034377
H        9.01754392      24.68054351       8.31579093
H        7.89553116      23.61760167       7.68205627
H        9.44413482      22.92617244       7.85147333
C        9.31612297      23.11547677      10.50480399
H       10.02774006      22.54297592      10.21063065
H        8.95585069      22.78087634      11.32877668
H        9.65465838      24.00350141      10.64065736
H        7.95042326      22.25067137       9.41050046
H        7.68807685      23.66136417       9.71877940
N       12.74185229      18.51226123       9.79887218
C       11.70280844      17.94686218       8.92597186
H       10.80189994      18.54860258       9.06614207
H       11.56561341      17.08970068       9.34672110
H       12.14938097      17.88929665       7.95934533
C       13.13146649      19.87876453       9.43240756
H       13.46861947      19.88487745       8.53408437
H       13.81333998      20.18817040      10.03240848
H       12.36685406      20.45626952       9.49161853
H       13.53600823      17.99464214       9.74378044
H       12.41866338      18.52202098      10.53582069
N       -4.49889740       8.51812371       3.24211868
C       -3.37401652       9.40236325       2.90447003
H       -2.63005448       9.29407513       3.69704148
H       -3.79413765      10.26586093       2.99638439
H       -3.11163585       9.15195043       1.90169515
C       -4.14218008       7.09468445       3.24259858
H       -3.82421181       6.84464965       2.37249926
H       -4.91579244       6.57169223       3.46325127
H       -3.45350602       6.93761002       3.89275686
H       -5.19351874       8.60919435       2.60113848
H       -4.72164930       8.73137136       3.98545337
Pb       8.51517992      18.07649851       6.26361050
Pb      -4.25758996       4.51912463       6.26361050
Pb       8.51517992      18.07649851       0.00000000
Pb      -4.25758996       4.51912463       0.00000000
I       10.14233306      20.81485541       6.73940693
I       -1.62715327       6.29989263       5.78781407
I       14.39992314      19.85726624       5.78781407
I       -5.88474322       7.25748125       6.73940693
I       -1.62715327       6.29989263       0.47579643
I       10.14233306      20.81485541      12.05142457
I       -5.88474322       7.25748125      12.05142457
I       14.39992314      19.85726624       0.47579643
I       -0.65085743       8.99270551       9.39541575
I        9.16603754      18.12204239       3.13180525
I       12.12191219      22.64116688       3.13180525
I       -3.60673253       4.47358062       9.39541575
Cs      -0.23982684       3.82047258      15.65902625
N        9.12033965      23.45016719      22.26579930
C        9.27266768      23.59747720      20.81103502
H        9.30677392      22.59119868      20.38722415
H       10.15759453      23.97857352      20.76361885
H        8.49613188      24.26517507      20.51391661
C        7.85270095      22.82424315      22.65916684
H        7.12092554      23.35691771      22.34064429
H        7.81070384      22.76181976      23.61573577
H        7.79838643      21.94468367      22.27827948
H        9.12818004      24.30172963      22.68583290
H        9.72805757      22.97574611      22.49654376
N       12.19340713      19.17085453      21.98317337
C       13.30509221      19.20886434      21.02194775
H       14.23169922      19.18303261      21.59996809
H       13.19583714      20.09646969      20.66028725
H       13.10019036      18.42809004      20.32515913
C       12.13103746      17.92363442      22.75387359
H       12.02484392      17.18229834      22.15400877
H       11.38493762      17.95747288      23.35626429
H       12.94267525      17.81638816      23.25526411
H       11.36226234      19.23424413      21.52838949
H       12.32753089      19.78296889      22.48811522
N       -4.51951535       8.45744396      15.75846368
C       -3.96381084       8.40182707      14.39855838
H       -3.21493882       9.19366480      14.32399925
H       -4.73546023       8.66210809      13.88146143
H       -3.66903277       7.38680468      14.25733841
C       -3.53496455       8.15503293      16.80375507
H       -3.18425168       7.27247549      16.66668979
H       -3.95785659       8.20150115      17.66380599
H       -2.81948928       8.79390447      16.76390009
H       -5.20864312       7.81203759      15.85946776
H       -4.77591569       9.21439968      15.85289008
Pb       8.51517992      18.07649851      18.79083150
Pb      -4.25758996       4.51912463      18.79083150
Pb       8.51517992      18.07649851      12.52722100
Pb      -4.25758996       4.51912463      12.52722100
I       10.14233306      20.81485541      19.26662793
I       -1.62715327       6.29989263      18.31503507
I       14.39992314      19.85726624      18.31503507
I       -5.88474322       7.25748125      19.26662793
I       -1.62715327       6.29989263      13.00301743
I       10.14233306      20.81485541      24.57864556
I       -5.88474322       7.25748125      24.57864556
I       14.39992314      19.85726624      13.00301743
I       -0.65085743       8.99270551      21.92263675
I        9.16603754      18.12204239      15.65902625
I       12.12191219      22.64116688      15.65902625
I       -3.60673253       4.47358062      21.92263675
