400
Lattice="17.030359838682134 18.07649850800878 0.0 -17.030359838682134 18.07649850800878 0.0 0.0 0.0 25.054441994943765" Properties=species:S:1:pos:R:3 pbc="T T T"
Cs      -0.23982684      12.85872184       3.13180525
Cs      -8.27535305      14.25602593       9.39541575
Cs      -4.49741680       9.73690130       9.39541575
N       -3.52942198      17.28698759       2.96210389
C       -4.72034688      17.07643186       2.12627655
H       -5.30172656      16.27608425       2.58975978
H       -4.31347368      16.73169347       1.32241843
H       -5.15697554      18.04252936       2.01173964
C       -3.84209944      17.77101254       4.31168881
H       -4.30880382      18.60720154       4.25111633
H       -3.02745734      17.89393094       4.80355655
H       -4.39421801      17.12782251       4.76237915
H       -2.96801648      17.94790986       2.57525263
H       -3.17873258      16.56487866       3.01880548
Pb      -8.51517992       9.03824925       6.26361050
Pb      -4.25758996      13.55737388       6.26361050
Pb      -8.51517992       9.03824925       0.00000000
Pb      -4.25758996      13.55737388       0.00000000
I       -6.88802678      11.77660615       6.73940693
I       -1.62715327      15.33814188       5.78781407
I       -2.63043669      10.81901698       5.78781407
I       -5.88474322      16.29573051       6.73940693
I       -1.62715327      15.33814188       0.47579643
I       -6.88802678      11.77660615      12.05142457
I       -5.88474322      16.29573051      12.05142457
I       -2.63043669      10.81901698       0.47579643
I       -0.65085743      18.03095477       9.39541575
I       -7.86432229       9.08379314       3.13180525
I       -4.90844765      13.60291762       3.13180525
I       -3.60673253      13.51182987       9.39541575
N       -0.64033104      12.94206707      15.98793491
C       -0.40428685      11.65211576      15.32344118
H       -0.52789619      11.81520090      14.25036182
H       -1.16082962      11.14688750      15.64432383
H        0.53473915      11.31186746      15.69703043
C        0.34912540      13.96790110      15.63855362
H        1.22476222      13.66562625      15.88872182
H        0.14524385      14.78059781      16.10614418
H        0.32360649      14.12797602      14.69231109
H       -0.58550064      12.84202721      16.93060874
H       -1.36551149      13.18234617      15.73491571
Cs      -8.27535305      14.25602593      21.92263675
Cs      -4.49741680       9.73690130      21.92263675
N       -4.10477016      16.88665113      15.49566200
C       -4.95752086      17.56600537      16.48183502
H       -4.34228861      17.75343000      17.36486199
H       -5.58299100      16.86164165      16.68977033
H       -5.38912239      18.38940428      15.95949221
C       -2.99064150      17.71440540      15.01925148
H       -3.33627089      18.50987457      14.60880884
H       -2.47727181      17.21985330      14.37694754
H       -2.43013952      17.95410694      15.76089211
H       -4.60869617      16.66354689      14.72240179
H       -3.80728907      16.24411544      15.87814382
Pb      -8.51517992       9.03824925      18.79083150
Pb      -4.25758996      13.55737388      18.79083150
Pb      -8.51517992       9.03824925      12.52722100
Pb      -4.25758996      13.55737388      12.52722100
I       -6.88802678      11.77660615      19.26662793
I       -1.62715327      15.33814188      18.31503507
I       -2.63043669      10.81901698      18.31503507
I       -5.88474322      16.29573051      19.26662793
I       -1.62715327      15.33814188      13.00301743
I       -6.88802678      11.77660615      24.57864556
I       -5.88474322      16.29573051      24.57864556
I       -2.63043669      10.81901698      13.00301743
I       -0.65085743      18.03095477      21.92263675
I       -7.86432229       9.08379314      15.65902625
I       -4.90844765      13.60291762      15.65902625
I       -3.60673253      13.51182987      21.92263675
Cs      -0.23982684      21.89697109       3.13180525
Cs      -8.27535305      23.29427518       9.39541575
Cs      -4.49741680      18.77515055       9.39541575
Cs      -4.01776312      26.41609572       3.13180525
Pb      -8.51517992      18.07649851       6.26361050
Pb      -4.25758996      22.59562313       6.26361050
Pb      -8.51517992      18.07649851       0.00000000
Pb      -4.25758996      22.59562313       0.00000000
I       -6.88802678      20.81485541       6.73940693
I       -1.62715327      24.37639113       5.78781407
I       -2.63043669      19.85726624       5.78781407
I       -5.88474322      25.33397976       6.73940693
I       -1.62715327      24.37639113       0.47579643
I       -6.88802678      20.81485541      12.05142457
I       -5.88474322      25.33397976      12.05142457
I       -2.63043669      19.85726624       0.47579643
I       -0.65085743      27.06920402       9.39541575
I       -7.86432229      18.12204239       3.13180525
I       -4.90844765      22.64116688       3.13180525
I       -3.60673253      22.55007912       9.39541575
Cs      -0.23982684      21.89697109      15.65902625
Cs      -8.27535305      23.29427518      21.92263675
Cs      -4.49741680      18.77515055      21.92263675
N       -4.15084175      26.23928104      16.13500693
C       -4.61355863      27.52839316      15.60084759
H       -3.73109721      28.15951158      15.47307157
H       -5.11939518      27.85986772      16.35240082
H       -5.20932251      27.28238537      14.75134584
C       -3.28206529      25.50254775      15.20987000
H       -3.75792422      25.32800107      14.39513950
H       -3.01950971      24.67166418      15.61159331
H       -2.50078419      26.02664510      15.01863212
H       -4.89031489      25.66802128      16.30379689
H       -3.73154919      26.42142251      16.79731930
Pb      -8.51517992      18.07649851      18.79083150
Pb      -4.25758996      22.59562313      18.79083150
Pb      -8.51517992      18.07649851      12.52722100
Pb      -4.25758996      22.59562313      12.52722100
I       -6.88802678      20.81485541      19.26662793
I       -1.62715327      24.37639113      18.31503507
I       -2.63043669      19.85726624      18.31503507
I       -5.88474322      25.33397976      19.26662793
I       -1.62715327      24.37639113      13.00301743
I       -6.88802678      20.81485541      24.57864556
I       -5.88474322      25.33397976      24.57864556
I       -2.63043669      19.85726624      13.00301743
I       -0.65085743      27.06920402      21.92263675
I       -7.86432229      18.12204239      15.65902625
I       -4.90844765      22.64116688      15.65902625
I       -3.60673253      22.55007912      21.92263675
Cs      -8.75500675      21.89697109       3.13180525
Cs       0.23982687       5.21777667       9.39541575
Cs     -13.01259671      18.77515055       9.39541575
Cs       4.49741680       8.33959721       3.13180525
Pb       0.00000000       0.00000000       6.26361050
Pb       4.25758996       4.51912463       6.26361050
Pb       0.00000000       0.00000000       0.00000000
Pb       4.25758996       4.51912463       0.00000000
I        1.62715314       2.73835690       6.73940693
I      -10.14233318      24.37639113       5.78781407
I      -11.14561661      19.85726624       5.78781407
I        2.63043669       7.25748125       6.73940693
I      -10.14233318      24.37639113       0.47579643
I        1.62715314       2.73835690      12.05142457
I        2.63043669       7.25748125      12.05142457
I      -11.14561661      19.85726624       0.47579643
I        7.86432249       8.99270551       9.39541575
I      -16.37950221      18.12204239       3.13180525
I        3.60673227       4.56466837       3.13180525
I      -12.12191244      22.55007912       9.39541575
Cs      -8.75500675      21.89697109      15.65902625
Cs       0.23982687       5.21777667      21.92263675
Cs     -13.01259671      18.77515055      21.92263675
Cs       4.49741680       8.33959721      15.65902625
Pb       0.00000000       0.00000000      18.79083150
Pb       4.25758996       4.51912463      18.79083150
Pb       0.00000000       0.00000000      12.52722100
Pb       4.25758996       4.51912463      12.52722100
I        1.62715314       2.73835690      19.26662793
I      -10.14233318      24.37639113      18.31503507
I      -11.14561661      19.85726624      18.31503507
I        2.63043669       7.25748125      19.26662793
I      -10.14233318      24.37639113      13.00301743
I        1.62715314       2.73835690      24.57864556
I        2.63043669       7.25748125      24.57864556
I      -11.14561661      19.85726624      13.00301743
I        7.86432249       8.99270551      21.92263675
I      -16.37950221      18.12204239      15.65902625
I        3.60673227       4.56466837      15.65902625
I      -12.12191244      22.55007912      21.92263675
Cs       8.27535308      12.85872184       3.13180525
Cs       0.23982687      14.25602593       9.39541575
Cs       4.01776312       9.73690130       9.39541575
Cs       4.49741680      17.37784646       3.13180525
Pb       0.00000000       9.03824925       6.26361050
Pb       4.25758996      13.55737388       6.26361050
Pb       0.00000000       9.03824925       0.00000000
Pb       4.25758996      13.55737388       0.00000000
I        1.62715314      11.77660615       6.73940693
I        6.88802665      15.33814188       5.78781407
I        5.88474322      10.81901698       5.78781407
I        2.63043669      16.29573051       6.73940693
I        6.88802665      15.33814188       0.47579643
I        1.62715314      11.77660615      12.05142457
I        2.63043669      16.29573051      12.05142457
I        5.88474322      10.81901698       0.47579643
I        7.86432249      18.03095477       9.39541575
I        0.65085762       9.08379314       3.13180525
I        3.60673227      13.60291762       3.13180525
I        4.90844739      13.51182987       9.39541575
Cs       8.27535308      12.85872184      15.65902625
Cs       0.23982687      14.25602593      21.92263675
Cs       4.01776312       9.73690130      21.92263675
Cs       4.49741680      17.37784646      15.65902625
Pb       0.00000000       9.03824925      18.79083150
Pb       4.25758996      13.55737388      18.79083150
Pb       0.00000000       9.03824925      12.52722100
Pb       4.25758996      13.55737388      12.52722100
I        1.62715314      11.77660615      19.26662793
I        6.88802665      15.33814188      18.31503507
I        5.88474322      10.81901698      18.31503507
I        2.63043669      16.29573051      19.26662793
I        6.88802665      15.33814188      13.00301743
I        1.62715314      11.77660615      24.57864556
I        2.63043669      16.29573051      24.57864556
I        5.88474322      10.81901698      13.00301743
I        7.86432249      18.03095477      21.92263675
I        0.65085762       9.08379314      15.65902625
I        3.60673227      13.60291762      15.65902625
I        4.90844739      13.51182987      21.92263675
Cs       8.27535308      21.89697109       3.13180525
Cs       0.23982687      23.29427518       9.39541575
Cs       4.01776312      18.77515055       9.39541575
Cs       4.49741680      26.41609572       3.13180525
Pb      -0.00000000      18.07649851       6.26361050
Pb       4.25758996      22.59562313       6.26361050
Pb      -0.00000000      18.07649851       0.00000000
Pb       4.25758996      22.59562313       0.00000000
I        1.62715314      20.81485541       6.73940693
I        6.88802665      24.37639113       5.78781407
I        5.88474322      19.85726624       5.78781407
I        2.63043669      25.33397976       6.73940693
I        6.88802665      24.37639113       0.47579643
I        1.62715314      20.81485541      12.05142457
I        2.63043669      25.33397976      12.05142457
I        5.88474322      19.85726624       0.47579643
I        7.86432249      27.06920402       9.39541575
I        0.65085762      18.12204239       3.13180525
I        3.60673227      22.64116688       3.13180525
I        4.90844739      22.55007912       9.39541575
Cs       8.27535308      21.89697109      15.65902625
Cs       0.23982687      23.29427518      21.92263675
Cs       4.01776312      18.77515055      21.92263675
Cs       4.49741680      26.41609572      15.65902625
Pb      -0.00000000      18.07649851      18.79083150
Pb       4.25758996      22.59562313      18.79083150
Pb      -0.00000000      18.07649851      12.52722100
Pb       4.25758996      22.59562313      12.52722100
I        1.62715314      20.81485541      19.26662793
I        6.88802665      24.37639113      18.31503507
I        5.88474322      19.85726624      18.31503507
I        2.63043669      25.33397976      19.26662793
I        6.88802665      24.37639113      13.00301743
I        1.62715314      20.81485541      24.57864556
I        2.63043669      25.33397976      24.57864556
I        5.88474322      19.85726624      13.00301743
I        7.86432249      27.06920402      21.92263675
I        0.65085762      18.12204239      15.65902625
I        3.60673227      22.64116688      15.65902625
I        4.90844739      22.55007912      21.92263675
Cs      -8.75500675      12.85872184       3.13180525
Cs       0.23982687      32.33252444       9.39541575
Cs       4.01776312      27.81339981       9.39541575
Cs     -12.53294304      17.37784646       3.13180525
Pb       0.00000000      27.11474776       6.26361050
Pb     -12.77276988      13.55737388       6.26361050
Pb       0.00000000      27.11474776       0.00000000
Pb     -12.77276988      13.55737388       0.00000000
I        1.62715314      29.85310466       6.73940693
I      -10.14233318      15.33814188       5.78781407
I        5.88474322      28.89551549       5.78781407
I      -14.39992314      16.29573051       6.73940693
I      -10.14233318      15.33814188       0.47579643
I        1.62715314      29.85310466      12.05142457
I      -14.39992314      16.29573051      12.05142457
I        5.88474322      28.89551549       0.47579643
I       -9.16603735      18.03095477       9.39541575
I        0.65085762      27.16029165       3.13180525
I        3.60673227      31.67941613       3.13180525
I      -12.12191244      13.51182987       9.39541575
Cs      -8.75500675      12.85872184      15.65902625
Cs       0.23982687      32.33252444      21.92263675
Cs       4.01776312      27.81339981      21.92263675
Cs     -12.53294304      17.37784646      15.65902625
Pb       0.00000000      27.11474776      18.79083150
Pb     -12.77276988      13.55737388      18.79083150
Pb       0.00000000      27.11474776      12.52722100
Pb     -12.77276988      13.55737388      12.52722100
I        1.62715314      29.85310466      19.26662793
I      -10.14233318      15.33814188      18.31503507
I        5.88474322      28.89551549      18.31503507
I      -14.39992314      16.29573051      19.26662793
I      -10.14233318      15.33814188      13.00301743
I        1.62715314      29.85310466      24.57864556
I      -14.39992314      16.29573051      24.57864556
I        5.88474322      28.89551549      13.00301743
I       -9.16603735      18.03095477      21.92263675
I        0.65085762      27.16029165      15.65902625
I        3.60673227      31.67941613      15.65902625
I      -12.12191244      13.51182987      21.92263675
Cs      -0.23982684      30.93522034       3.13180525
Cs       8.75500679      14.25602593       9.39541575
N       -4.47288211      28.17055551       9.77930221
C       -3.54500276      28.15468624       8.63911308
H       -2.96687957      27.23028494       8.70716562
H       -2.96840525      28.89276013       8.87011196
H       -4.15254464      28.33079702       7.78063447
C       -5.46673051      27.09168702       9.73764970
H       -5.98749831      27.16775382       8.93533506
H       -6.04361332      27.15928481      10.50140446
H       -5.01829863      26.24290972       9.74931476
H       -4.97081443      28.97903641       9.78768747
H       -4.01083907      28.07443225      10.43115801
N       12.85591008      17.02879089       2.77244406
C       11.95115163      17.60480889       3.77785869
H       12.30224384      17.26992829       4.75661534
H       11.13423400      17.13576130       3.56996887
H       11.91942709      18.64849034       3.56145574
C       14.23375181      17.52295147       2.87629150
H       14.24070887      18.47593472       2.76462869
H       14.77107630      17.11660533       2.19302745
H       14.58988707      17.29883855       3.73918848
H       12.56546640      17.25801829       1.89794675
H       12.85196890      16.23617845       2.91169000
Pb       8.51517992       9.03824925       6.26361050
Pb      12.77276988      13.55737388       6.26361050
Pb       8.51517992       9.03824925       0.00000000
Pb      12.77276988      13.55737388       0.00000000
I       10.14233306      11.77660615       6.73940693
I       -1.62715327      33.41464039       5.78781407
I       -2.63043669      28.89551549       5.78781407
I       11.14561661      16.29573051       6.73940693
I       -1.62715327      33.41464039       0.47579643
I       10.14233306      11.77660615      12.05142457
I       11.14561661      16.29573051      12.05142457
I       -2.63043669      28.89551549       0.47579643
I       16.37950240      18.03095477       9.39541575
I       -7.86432229      27.16029165       3.13180525
I       12.12191219      13.60291762       3.13180525
I       -3.60673253      31.58832838       9.39541575
Cs      -0.23982684      30.93522034      15.65902625
Cs       8.75500679      14.25602593      21.92263675
Cs      -4.49741680      27.81339981      21.92263675
Cs      13.01259671      17.37784646      15.65902625
Pb       8.51517992       9.03824925      18.79083150
Pb      12.77276988      13.55737388      18.79083150
Pb       8.51517992       9.03824925      12.52722100
Pb      12.77276988      13.55737388      12.52722100
I       10.14233306      11.77660615      19.26662793
I       -1.62715327      33.41464039      18.31503507
I       -2.63043669      28.89551549      18.31503507
I       11.14561661      16.29573051      19.26662793
I       -1.62715327      33.41464039      13.00301743
I       10.14233306      11.77660615      24.57864556
I       11.14561661      16.29573051      24.57864556
I       -2.63043669      28.89551549      13.00301743
I       16.37950240      18.03095477      21.92263675
I       -7.86432229      27.16029165      15.65902625
I       12.12191219      13.60291762      15.65902625
I       -3.60673253      31.58832838      21.92263675
Cs      -0.23982684       3.82047258       3.13180525
N        8.29357144      23.54062457       9.43923765
C        8.47860862      22.32253131       8.63720697
H        9.16341681      22.57335232       7.82387928
H        7.59325521      22.21713635       8.26894148
H        8.75074701      21.56491945       9.33654424
C        9.52250808      23.99723791      10.09851438
H        9.84657241      23.30848733      10.68272240
H        9.33623698      24.78830474      10.60861329
H       10.18771960      24.19360183       9.43474863
H        7.66981724      23.38362490      10.13775758
H        8.05249262      24.10425319       8.91785179
Cs      12.53294304      18.77515055       9.39541575
Cs      -4.01776312       8.33959721       3.13180525
Pb       8.51517992      18.07649851       6.26361050
Pb      -4.25758996       4.51912463       6.26361050
Pb       8.51517992      18.07649851       0.00000000
Pb      -4.25758996       4.51912463       0.00000000
I       10.14233306      20.81485541       6.73940693
I       -1.62715327       6.29989263       5.78781407
I       14.39992314      19.85726624       5.78781407
I       -5.88474322       7.25748125       6.73940693
I       -1.62715327       6.29989263       0.47579643
I       10.14233306      20.81485541      12.05142457
I       -5.88474322       7.25748125      12.05142457
I       14.39992314      19.85726624       0.47579643
I       -0.65085743       8.99270551       9.39541575
I        9.16603754      18.12204239       3.13180525
I       12.12191219      22.64116688       3.13180525
I       -3.60673253       4.47358062       9.39541575
Cs      -0.23982684       3.82047258      15.65902625
Cs       8.75500679      23.29427518      21.92263675
N       12.27620409      19.01890212      22.31019480
C       12.03609120      19.30211003      20.88773839
H       12.95807251      19.72648618      20.48372019
H       11.38039320      20.00637589      20.95591440
H       11.65555379      18.39275966      20.48106797
C       13.30216837      17.99426019      22.53587825
H       13.03317969      17.17470644      22.11555600
H       13.40821581      17.85077600      23.47866708
H       14.13572707      18.28806562      22.16103375
H       11.48587567      18.68598647      22.71786677
H       12.52861442      19.71467493      22.62615155
Cs      -4.01776312       8.33959721      15.65902625
Pb       8.51517992      18.07649851      18.79083150
Pb      -4.25758996       4.51912463      18.79083150
Pb       8.51517992      18.07649851      12.52722100
Pb      -4.25758996       4.51912463      12.52722100
I       10.14233306      20.81485541      19.26662793
I       -1.62715327       6.29989263      18.31503507
I       14.39992314      19.85726624      18.31503507
I       -5.88474322       7.25748125      19.26662793
I       -1.62715327       6.29989263      13.00301743
I       10.14233306      20.81485541      24.57864556
I       -5.88474322       7.25748125      24.57864556
I       14.39992314      19.85726624      13.00301743
I       -0.65085743       8.99270551      21.92263675
I        9.16603754      18.12204239      15.65902625
I       12.12191219      22.64116688      15.65902625
I       -3.60673253       4.47358062      21.92263675
