360
Lattice="17.030359838682134 18.07649850800878 0.0 -17.030359838682134 18.07649850800878 0.0 0.0 0.0 25.054441994943765" Properties=species:S:1:pos:R:3 pbc="T T T"
Cs      -0.23982684      12.85872184       3.13180525
Cs      -8.27535305      14.25602593       9.39541575
N       -4.45469522       9.76289369       9.91793869
C       -5.34001644       8.81000576       9.23277148
H       -6.10092399       9.39509521       8.71117262
H       -5.75344929       8.37732794       9.98937007
H       -4.69040776       8.17676787       8.67230205
C       -3.70923417      10.63092336       8.99911383
H       -3.16670134      10.09185360       8.41966930
H       -3.14787191      11.22308464       9.50399202
H       -4.32624806      11.14532767       8.47344074
H       -3.79821041       9.29832618      10.42276837
H       -4.94075808      10.21795095      10.36994004
Cs      -4.01776312      17.37784646       3.13180525
Pb      -8.51517992       9.03824925       6.26361050
Pb      -4.25758996      13.55737388       6.26361050
Pb      -8.51517992       9.03824925       0.00000000
Pb      -4.25758996      13.55737388       0.00000000
I       -6.88802678      11.77660615       6.73940693
I       -1.62715327      15.33814188       5.78781407
I       -2.63043669      10.81901698       5.78781407
I       -5.88474322      16.29573051       6.73940693
I       -1.62715327      15.33814188       0.47579643
I       -6.88802678      11.77660615      12.05142457
I       -5.88474322      16.29573051      12.05142457
I       -2.63043669      10.81901698       0.47579643
I       -0.65085743      18.03095477       9.39541575
I       -7.86432229       9.08379314       3.13180525
I       -4.90844765      13.60291762       3.13180525
I       -3.60673253      13.51182987       9.39541575
Cs      -0.23982684      12.85872184      15.65902625
Cs      -8.27535305      14.25602593      21.92263675
Cs      -4.49741680       9.73690130      21.92263675
Cs      -4.01776312      17.37784646      15.65902625
Pb      -8.51517992       9.03824925      18.79083150
Pb      -4.25758996      13.55737388      18.79083150
Pb      -8.51517992       9.03824925      12.52722100
Pb      -4.25758996      13.55737388      12.52722100
I       -6.88802678      11.77660615      19.26662793
I       -1.62715327      15.33814188      18.31503507
I       -2.63043669      10.81901698      18.31503507
I       -5.88474322      16.29573051      19.26662793
I       -1.62715327      15.33814188      13.00301743
I       -6.88802678      11.77660615      24.57864556
I       -5.88474322      16.29573051      24.57864556
I       -2.63043669      10.81901698      13.00301743
I       -0.65085743      18.03095477      21.92263675
I       -7.86432229       9.08379314      15.65902625
I       -4.90844765      13.60291762      15.65902625
I       -3.60673253      13.51182987      21.92263675
Cs      -0.23982684      21.89697109       3.13180525
Cs      -8.27535305      23.29427518       9.39541575
Cs      -4.49741680      18.77515055       9.39541575
Cs      -4.01776312      26.41609572       3.13180525
Pb      -8.51517992      18.07649851       6.26361050
Pb      -4.25758996      22.59562313       6.26361050
Pb      -8.51517992      18.07649851       0.00000000
Pb      -4.25758996      22.59562313       0.00000000
I       -6.88802678      20.81485541       6.73940693
I       -1.62715327      24.37639113       5.78781407
I       -2.63043669      19.85726624       5.78781407
I       -5.88474322      25.33397976       6.73940693
I       -1.62715327      24.37639113       0.47579643
I       -6.88802678      20.81485541      12.05142457
I       -5.88474322      25.33397976      12.05142457
I       -2.63043669      19.85726624       0.47579643
I       -0.65085743      27.06920402       9.39541575
I       -7.86432229      18.12204239       3.13180525
I       -4.90844765      22.64116688       3.13180525
I       -3.60673253      22.55007912       9.39541575
Cs      -0.23982684      21.89697109      15.65902625
Cs      -8.27535305      23.29427518      21.92263675
Cs      -4.49741680      18.77515055      21.92263675
Cs      -4.01776312      26.41609572      15.65902625
Pb      -8.51517992      18.07649851      18.79083150
Pb      -4.25758996      22.59562313      18.79083150
Pb      -8.51517992      18.07649851      12.52722100
Pb      -4.25758996      22.59562313      12.52722100
I       -6.88802678      20.81485541      19.26662793
I       -1.62715327      24.37639113      18.31503507
I       -2.63043669      19.85726624      18.31503507
I       -5.88474322      25.33397976      19.26662793
I       -1.62715327      24.37639113      13.00301743
I       -6.88802678      20.81485541      24.57864556
I       -5.88474322      25.33397976      24.57864556
I       -2.63043669      19.85726624      13.00301743
I       -0.65085743      27.06920402      21.92263675
I       -7.86432229      18.12204239      15.65902625
I       -4.90844765      22.64116688      15.65902625
I       -3.60673253      22.55007912      21.92263675
Cs      -8.75500675      21.89697109       3.13180525
Cs       0.23982687       5.21777667       9.39541575
Cs     -13.01259671      18.77515055       9.39541575
Cs       4.49741680       8.33959721       3.13180525
Pb       0.00000000       0.00000000       6.26361050
Pb       4.25758996       4.51912463       6.26361050
Pb       0.00000000       0.00000000       0.00000000
Pb       4.25758996       4.51912463       0.00000000
I        1.62715314       2.73835690       6.73940693
I      -10.14233318      24.37639113       5.78781407
I      -11.14561661      19.85726624       5.78781407
I        2.63043669       7.25748125       6.73940693
I      -10.14233318      24.37639113       0.47579643
I        1.62715314       2.73835690      12.05142457
I        2.63043669       7.25748125      12.05142457
I      -11.14561661      19.85726624       0.47579643
I        7.86432249       8.99270551       9.39541575
I      -16.37950221      18.12204239       3.13180525
I        3.60673227       4.56466837       3.13180525
I      -12.12191244      22.55007912       9.39541575
Cs      -8.75500675      21.89697109      15.65902625
Cs       0.23982687       5.21777667      21.92263675
Cs     -13.01259671      18.77515055      21.92263675
Cs       4.49741680       8.33959721      15.65902625
Pb       0.00000000       0.00000000      18.79083150
Pb       4.25758996       4.51912463      18.79083150
Pb       0.00000000       0.00000000      12.52722100
Pb       4.25758996       4.51912463      12.52722100
I        1.62715314       2.73835690      19.26662793
I      -10.14233318      24.37639113      18.31503507
I      -11.14561661      19.85726624      18.31503507
I        2.63043669       7.25748125      19.26662793
I      -10.14233318      24.37639113      13.00301743
I        1.62715314       2.73835690      24.57864556
I        2.63043669       7.25748125      24.57864556
I      -11.14561661      19.85726624      13.00301743
I        7.86432249       8.99270551      21.92263675
I      -16.37950221      18.12204239      15.65902625
I        3.60673227       4.56466837      15.65902625
I      -12.12191244      22.55007912      21.92263675
Cs       8.27535308      12.85872184       3.13180525
Cs       0.23982687      14.25602593       9.39541575
Cs       4.01776312       9.73690130       9.39541575
Cs       4.49741680      17.37784646       3.13180525
Pb       0.00000000       9.03824925       6.26361050
Pb       4.25758996      13.55737388       6.26361050
Pb       0.00000000       9.03824925       0.00000000
Pb       4.25758996      13.55737388       0.00000000
I        1.62715314      11.77660615       6.73940693
I        6.88802665      15.33814188       5.78781407
I        5.88474322      10.81901698       5.78781407
I        2.63043669      16.29573051       6.73940693
I        6.88802665      15.33814188       0.47579643
I        1.62715314      11.77660615      12.05142457
I        2.63043669      16.29573051      12.05142457
I        5.88474322      10.81901698       0.47579643
I        7.86432249      18.03095477       9.39541575
I        0.65085762       9.08379314       3.13180525
I        3.60673227      13.60291762       3.13180525
I        4.90844739      13.51182987       9.39541575
Cs       8.27535308      12.85872184      15.65902625
Cs       0.23982687      14.25602593      21.92263675
Cs       4.01776312       9.73690130      21.92263675
Cs       4.49741680      17.37784646      15.65902625
Pb       0.00000000       9.03824925      18.79083150
Pb       4.25758996      13.55737388      18.79083150
Pb       0.00000000       9.03824925      12.52722100
Pb       4.25758996      13.55737388      12.52722100
I        1.62715314      11.77660615      19.26662793
I        6.88802665      15.33814188      18.31503507
I        5.88474322      10.81901698      18.31503507
I        2.63043669      16.29573051      19.26662793
I        6.88802665      15.33814188      13.00301743
I        1.62715314      11.77660615      24.57864556
I        2.63043669      16.29573051      24.57864556
I        5.88474322      10.81901698      13.00301743
I        7.86432249      18.03095477      21.92263675
I        0.65085762       9.08379314      15.65902625
I        3.60673227      13.60291762      15.65902625
I        4.90844739      13.51182987      21.92263675
Cs       8.27535308      21.89697109       3.13180525
Cs       0.23982687      23.29427518       9.39541575
Cs       4.01776312      18.77515055       9.39541575
Cs       4.49741680      26.41609572       3.13180525
Pb      -0.00000000      18.07649851       6.26361050
Pb       4.25758996      22.59562313       6.26361050
Pb      -0.00000000      18.07649851       0.00000000
Pb       4.25758996      22.59562313       0.00000000
I        1.62715314      20.81485541       6.73940693
I        6.88802665      24.37639113       5.78781407
I        5.88474322      19.85726624       5.78781407
I        2.63043669      25.33397976       6.73940693
I        6.88802665      24.37639113       0.47579643
I        1.62715314      20.81485541      12.05142457
I        2.63043669      25.33397976      12.05142457
I        5.88474322      19.85726624       0.47579643
I        7.86432249      27.06920402       9.39541575
I        0.65085762      18.12204239       3.13180525
I        3.60673227      22.64116688       3.13180525
I        4.90844739      22.55007912       9.39541575
Cs       8.27535308      21.89697109      15.65902625
Cs       0.23982687      23.29427518      21.92263675
Cs       4.01776312      18.77515055      21.92263675
Cs       4.49741680      26.41609572      15.65902625
Pb      -0.00000000      18.07649851      18.79083150
Pb       4.25758996      22.59562313      18.79083150
Pb      -0.00000000      18.07649851      12.52722100
Pb       4.25758996      22.59562313      12.52722100
I        1.62715314      20.81485541      19.26662793
I        6.88802665      24.37639113      18.31503507
I        5.88474322      19.85726624      18.31503507
I        2.63043669      25.33397976      19.26662793
I        6.88802665      24.37639113      13.00301743
I        1.62715314      20.81485541      24.57864556
I        2.63043669      25.33397976      24.57864556
I        5.88474322      19.85726624      13.00301743
I        7.86432249      27.06920402      21.92263675
I        0.65085762      18.12204239      15.65902625
I        3.60673227      22.64116688      15.65902625
I        4.90844739      22.55007912      21.92263675
Cs      -8.75500675      12.85872184       3.13180525
Cs       0.23982687      32.33252444       9.39541575
Cs       4.01776312      27.81339981       9.39541575
Cs     -12.53294304      17.37784646       3.13180525
Pb       0.00000000      27.11474776       6.26361050
Pb     -12.77276988      13.55737388       6.26361050
Pb       0.00000000      27.11474776       0.00000000
Pb     -12.77276988      13.55737388       0.00000000
I        1.62715314      29.85310466       6.73940693
I      -10.14233318      15.33814188       5.78781407
I        5.88474322      28.89551549       5.78781407
I      -14.39992314      16.29573051       6.73940693
I      -10.14233318      15.33814188       0.47579643
I        1.62715314      29.85310466      12.05142457
I      -14.39992314      16.29573051      12.05142457
I        5.88474322      28.89551549       0.47579643
I       -9.16603735      18.03095477       9.39541575
I        0.65085762      27.16029165       3.13180525
I        3.60673227      31.67941613       3.13180525
I      -12.12191244      13.51182987       9.39541575
Cs      -8.75500675      12.85872184      15.65902625
N        0.43606134      31.86345078      21.79227993
C       -0.42971860      32.07291484      22.96180679
H        0.11147836      32.72588191      23.65036703
H       -0.44373674      31.18268269      23.33311320
H       -1.36620973      32.39196526      22.56393892
C        0.69718643      33.09138993      21.03240762
H       -0.13334210      33.45664827      20.72015331
H        1.26014583      32.88903932      20.28219731
H        1.13576263      33.73081664      21.59847700
H        0.02458933      31.26487655      21.18068532
H        1.13142407      31.58748319      22.08884694
Cs       4.01776312      27.81339981      21.92263675
Cs     -12.53294304      17.37784646      15.65902625
Pb       0.00000000      27.11474776      18.79083150
Pb     -12.77276988      13.55737388      18.79083150
Pb       0.00000000      27.11474776      12.52722100
Pb     -12.77276988      13.55737388      12.52722100
I        1.62715314      29.85310466      19.26662793
I      -10.14233318      15.33814188      18.31503507
I        5.88474322      28.89551549      18.31503507
I      -14.39992314      16.29573051      19.26662793
I      -10.14233318      15.33814188      13.00301743
I        1.62715314      29.85310466      24.57864556
I      -14.39992314      16.29573051      24.57864556
I        5.88474322      28.89551549      13.00301743
I       -9.16603735      18.03095477      21.92263675
I        0.65085762      27.16029165      15.65902625
I        3.60673227      31.67941613      15.65902625
I      -12.12191244      13.51182987      21.92263675
N       -0.44869590      30.46938408       3.00973456
C        0.98066509      30.77343044       2.84934087
H        1.06020999      31.55805683       2.09342461
H        1.29526978      29.94649818       2.46491249
H        1.34059464      30.95792309       3.83601246
C       -1.22842917      31.59400275       3.53952289
H       -0.88414909      31.84459062       4.39938974
H       -2.14752291      31.33248098       3.62645747
H       -1.16329062      32.33980706       2.93853784
H       -0.56709218      29.75958043       3.62925807
H       -0.71334562      30.29400757       2.27024619
Cs       8.75500679      14.25602593       9.39541575
N       -4.07964343      28.05973386       9.19462753
C       -5.31440524      27.82484939       8.43210819
H       -5.42383981      26.74357869       8.32141457
H       -5.06708385      28.19557160       7.57655257
H       -6.06915835      28.37835361       8.94307636
C       -4.13160012      27.53639746      10.56460794
H       -4.85290642      27.95476514      11.03934971
H       -3.30300643      27.72508771      11.01015598
H       -4.27255968      26.58711134      10.53938138
H       -3.91787033      28.99141295       9.28095152
H       -3.50220251      27.67254077       8.78930922
Cs      13.01259671      17.37784646       3.13180525
Pb       8.51517992       9.03824925       6.26361050
Pb      12.77276988      13.55737388       6.26361050
Pb       8.51517992       9.03824925       0.00000000
Pb      12.77276988      13.55737388       0.00000000
I       10.14233306      11.77660615       6.73940693
I       -1.62715327      33.41464039       5.78781407
I       -2.63043669      28.89551549       5.78781407
I       11.14561661      16.29573051       6.73940693
I       -1.62715327      33.41464039       0.47579643
I       10.14233306      11.77660615      12.05142457
I       11.14561661      16.29573051      12.05142457
I       -2.63043669      28.89551549       0.47579643
I       16.37950240      18.03095477       9.39541575
I       -7.86432229      27.16029165       3.13180525
I       12.12191219      13.60291762       3.13180525
I       -3.60673253      31.58832838       9.39541575
Cs      -0.23982684      30.93522034      15.65902625
Cs       8.75500679      14.25602593      21.92263675
Cs      -4.49741680      27.81339981      21.92263675
Cs      13.01259671      17.37784646      15.65902625
Pb       8.51517992       9.03824925      18.79083150
Pb      12.77276988      13.55737388      18.79083150
Pb       8.51517992       9.03824925      12.52722100
Pb      12.77276988      13.55737388      12.52722100
I       10.14233306      11.77660615      19.26662793
I       -1.62715327      33.41464039      18.31503507
I       -2.63043669      28.89551549      18.31503507
I       11.14561661      16.29573051      19.26662793
I       -1.62715327      33.41464039      13.00301743
I       10.14233306      11.77660615      24.57864556
I       11.14561661      16.29573051      24.57864556
I       -2.63043669      28.89551549      13.00301743
I       16.37950240      18.03095477      21.92263675
I       -7.86432229      27.16029165      15.65902625
I       12.12191219      13.60291762      15.65902625
I       -3.60673253      31.58832838      21.92263675
Cs      -0.23982684       3.82047258       3.13180525
Cs       8.75500679      23.29427518       9.39541575
Cs      12.53294304      18.77515055       9.39541575
Cs      -4.01776312       8.33959721       3.13180525
Pb       8.51517992      18.07649851       6.26361050
Pb      -4.25758996       4.51912463       6.26361050
Pb       8.51517992      18.07649851       0.00000000
Pb      -4.25758996       4.51912463       0.00000000
I       10.14233306      20.81485541       6.73940693
I       -1.62715327       6.29989263       5.78781407
I       14.39992314      19.85726624       5.78781407
I       -5.88474322       7.25748125       6.73940693
I       -1.62715327       6.29989263       0.47579643
I       10.14233306      20.81485541      12.05142457
I       -5.88474322       7.25748125      12.05142457
I       14.39992314      19.85726624       0.47579643
I       -0.65085743       8.99270551       9.39541575
I        9.16603754      18.12204239       3.13180525
I       12.12191219      22.64116688       3.13180525
I       -3.60673253       4.47358062       9.39541575
Cs      -0.23982684       3.82047258      15.65902625
Cs       8.75500679      23.29427518      21.92263675
Cs      12.53294304      18.77515055      21.92263675
Cs      -4.01776312       8.33959721      15.65902625
Pb       8.51517992      18.07649851      18.79083150
Pb      -4.25758996       4.51912463      18.79083150
Pb       8.51517992      18.07649851      12.52722100
Pb      -4.25758996       4.51912463      12.52722100
I       10.14233306      20.81485541      19.26662793
I       -1.62715327       6.29989263      18.31503507
I       14.39992314      19.85726624      18.31503507
I       -5.88474322       7.25748125      19.26662793
I       -1.62715327       6.29989263      13.00301743
I       10.14233306      20.81485541      24.57864556
I       -5.88474322       7.25748125      24.57864556
I       14.39992314      19.85726624      13.00301743
I       -0.65085743       8.99270551      21.92263675
I        9.16603754      18.12204239      15.65902625
I       12.12191219      22.64116688      15.65902625
I       -3.60673253       4.47358062      21.92263675
