440
Lattice="17.030359838682134 18.07649850800878 0.0 -17.030359838682134 18.07649850800878 0.0 0.0 0.0 25.054441994943765" Properties=species:S:1:pos:R:3 pbc="T T T"
N        0.27418267      12.82053519       3.23113785
C       -0.58368330      11.65195913       2.98672197
H       -1.30854246      11.60819294       3.80283414
H        0.05311164      10.93717451       3.10568997
H       -0.92947978      11.76269094       1.98408998
C       -0.44791371      14.09669870       3.17273989
H       -0.84368631      14.20048305       2.30481887
H        0.16438694      14.81771352       3.33370605
H       -1.13620868      14.10580725       3.84193134
H        0.95090650      12.87709272       2.56744033
H        0.56508432      12.71931717       3.97462328
Cs      -8.27535305      14.25602593       9.39541575
Cs      -4.49741680       9.73690130       9.39541575
Cs      -4.01776312      17.37784646       3.13180525
Pb      -8.51517992       9.03824925       6.26361050
Pb      -4.25758996      13.55737388       6.26361050
Pb      -8.51517992       9.03824925       0.00000000
Pb      -4.25758996      13.55737388       0.00000000
I       -6.88802678      11.77660615       6.73940693
I       -1.62715327      15.33814188       5.78781407
I       -2.63043669      10.81901698       5.78781407
I       -5.88474322      16.29573051       6.73940693
I       -1.62715327      15.33814188       0.47579643
I       -6.88802678      11.77660615      12.05142457
I       -5.88474322      16.29573051      12.05142457
I       -2.63043669      10.81901698       0.47579643
I       -0.65085743      18.03095477       9.39541575
I       -7.86432229       9.08379314       3.13180525
I       -4.90844765      13.60291762       3.13180525
I       -3.60673253      13.51182987       9.39541575
Cs      -0.23982684      12.85872184      15.65902625
Cs      -8.27535305      14.25602593      21.92263675
Cs      -4.49741680       9.73690130      21.92263675
Cs      -4.01776312      17.37784646      15.65902625
Pb      -8.51517992       9.03824925      18.79083150
Pb      -4.25758996      13.55737388      18.79083150
Pb      -8.51517992       9.03824925      12.52722100
Pb      -4.25758996      13.55737388      12.52722100
I       -6.88802678      11.77660615      19.26662793
I       -1.62715327      15.33814188      18.31503507
I       -2.63043669      10.81901698      18.31503507
I       -5.88474322      16.29573051      19.26662793
I       -1.62715327      15.33814188      13.00301743
I       -6.88802678      11.77660615      24.57864556
I       -5.88474322      16.29573051      24.57864556
I       -2.63043669      10.81901698      13.00301743
I       -0.65085743      18.03095477      21.92263675
I       -7.86432229       9.08379314      15.65902625
I       -4.90844765      13.60291762      15.65902625
I       -3.60673253      13.51182987      21.92263675
Cs      -0.23982684      21.89697109       3.13180525
Cs      -8.27535305      23.29427518       9.39541575
N       -4.29295596      19.17154369       9.11865013
C       -4.75555681      17.91924224       8.50303279
H       -4.11354433      17.11924853       8.87880585
H       -4.53039045      18.08258745       7.57934632
H       -5.80399641      17.88326572       8.69431204
C       -4.45672485      19.20008512      10.57665971
H       -5.38442991      19.09118899      10.79620244
H       -4.14380318      20.04098380      10.91673910
H       -3.94855042      18.48672590      10.96975956
H       -4.79583985      19.90632047       8.78871202
H       -3.50889301      19.21801362       8.94336389
Cs      -4.01776312      26.41609572       3.13180525
Pb      -8.51517992      18.07649851       6.26361050
Pb      -4.25758996      22.59562313       6.26361050
Pb      -8.51517992      18.07649851       0.00000000
Pb      -4.25758996      22.59562313       0.00000000
I       -6.88802678      20.81485541       6.73940693
I       -1.62715327      24.37639113       5.78781407
I       -2.63043669      19.85726624       5.78781407
I       -5.88474322      25.33397976       6.73940693
I       -1.62715327      24.37639113       0.47579643
I       -6.88802678      20.81485541      12.05142457
I       -5.88474322      25.33397976      12.05142457
I       -2.63043669      19.85726624       0.47579643
I       -0.65085743      27.06920402       9.39541575
I       -7.86432229      18.12204239       3.13180525
I       -4.90844765      22.64116688       3.13180525
I       -3.60673253      22.55007912       9.39541575
Cs      -0.23982684      21.89697109      15.65902625
Cs      -8.27535305      23.29427518      21.92263675
Cs      -4.49741680      18.77515055      21.92263675
Cs      -4.01776312      26.41609572      15.65902625
Pb      -8.51517992      18.07649851      18.79083150
Pb      -4.25758996      22.59562313      18.79083150
Pb      -8.51517992      18.07649851      12.52722100
Pb      -4.25758996      22.59562313      12.52722100
I       -6.88802678      20.81485541      19.26662793
I       -1.62715327      24.37639113      18.31503507
I       -2.63043669      19.85726624      18.31503507
I       -5.88474322      25.33397976      19.26662793
I       -1.62715327      24.37639113      13.00301743
I       -6.88802678      20.81485541      24.57864556
I       -5.88474322      25.33397976      24.57864556
I       -2.63043669      19.85726624      13.00301743
I       -0.65085743      27.06920402      21.92263675
I       -7.86432229      18.12204239      15.65902625
I       -4.90844765      22.64116688      15.65902625
I       -3.60673253      22.55007912      21.92263675
Cs      -8.75500675      21.89697109       3.13180525
Cs       0.23982687       5.21777667       9.39541575
Cs     -13.01259671      18.77515055       9.39541575
Cs       4.49741680       8.33959721       3.13180525
Pb       0.00000000       0.00000000       6.26361050
Pb       4.25758996       4.51912463       6.26361050
Pb       0.00000000       0.00000000       0.00000000
Pb       4.25758996       4.51912463       0.00000000
I        1.62715314       2.73835690       6.73940693
I      -10.14233318      24.37639113       5.78781407
I      -11.14561661      19.85726624       5.78781407
I        2.63043669       7.25748125       6.73940693
I      -10.14233318      24.37639113       0.47579643
I        1.62715314       2.73835690      12.05142457
I        2.63043669       7.25748125      12.05142457
I      -11.14561661      19.85726624       0.47579643
I        7.86432249       8.99270551       9.39541575
I      -16.37950221      18.12204239       3.13180525
I        3.60673227       4.56466837       3.13180525
I      -12.12191244      22.55007912       9.39541575
Cs      -8.75500675      21.89697109      15.65902625
Cs       0.23982687       5.21777667      21.92263675
Cs     -13.01259671      18.77515055      21.92263675
N        4.06883195       8.45761409      15.37988828
C        4.43650164       9.15876710      16.61861610
H        4.38354578       8.42890324      17.42970781
H        3.69205389       9.76605509      16.70566257
H        5.36476546       9.63800271      16.40468348
C        5.01372997       7.39876632      15.00647705
H        5.88573638       7.77865732      14.88005830
H        4.72351835       6.98484991      14.19091897
H        5.04905933       6.74065360      15.70453836
H        4.05907967       9.06346818      14.64879732
H        3.35074441       8.12591755      15.52810142
Pb       0.00000000       0.00000000      18.79083150
Pb       4.25758996       4.51912463      18.79083150
Pb       0.00000000       0.00000000      12.52722100
Pb       4.25758996       4.51912463      12.52722100
I        1.62715314       2.73835690      19.26662793
I      -10.14233318      24.37639113      18.31503507
I      -11.14561661      19.85726624      18.31503507
I        2.63043669       7.25748125      19.26662793
I      -10.14233318      24.37639113      13.00301743
I        1.62715314       2.73835690      24.57864556
I        2.63043669       7.25748125      24.57864556
I      -11.14561661      19.85726624      13.00301743
I        7.86432249       8.99270551      21.92263675
I      -16.37950221      18.12204239      15.65902625
I        3.60673227       4.56466837      15.65902625
I      -12.12191244      22.55007912      21.92263675
N        8.26253033      13.36797400       3.00520048
C        9.51302992      12.63319837       3.24519779
H        9.50915804      12.32444999       4.29306935
H       10.15810879      13.34248228       3.13857776
H        9.55352667      11.89118750       2.48041839
C        7.06082126      12.53963098       3.15741727
H        7.09521455      11.80943004       2.53587263
H        6.28181668      13.07203190       2.98310234
H        7.02012138      12.19639381       4.05306334
H        8.23843555      13.69518653       2.11413388
H        8.24883752      13.95157645       3.55915005
Cs       0.23982687      14.25602593       9.39541575
Cs       4.01776312       9.73690130       9.39541575
Cs       4.49741680      17.37784646       3.13180525
Pb       0.00000000       9.03824925       6.26361050
Pb       4.25758996      13.55737388       6.26361050
Pb       0.00000000       9.03824925       0.00000000
Pb       4.25758996      13.55737388       0.00000000
I        1.62715314      11.77660615       6.73940693
I        6.88802665      15.33814188       5.78781407
I        5.88474322      10.81901698       5.78781407
I        2.63043669      16.29573051       6.73940693
I        6.88802665      15.33814188       0.47579643
I        1.62715314      11.77660615      12.05142457
I        2.63043669      16.29573051      12.05142457
I        5.88474322      10.81901698       0.47579643
I        7.86432249      18.03095477       9.39541575
I        0.65085762       9.08379314       3.13180525
I        3.60673227      13.60291762       3.13180525
I        4.90844739      13.51182987       9.39541575
Cs       8.27535308      12.85872184      15.65902625
Cs       0.23982687      14.25602593      21.92263675
N        3.75071557      10.06307203      22.23541337
C        5.19593958       9.82897476      22.36871450
H        5.32810710       8.78107066      22.64764834
H        5.39354802      10.37661656      23.13788133
H        5.62309433      10.18716376      21.45967814
C        3.13322793       9.29505282      21.14808531
H        3.54622278       9.53189916      20.31499881
H        2.19550908       9.49459573      21.10870840
H        3.25427766       8.35661372      21.31034788
H        3.58190405      10.97556366      22.03414250
H        3.43135651       9.82707846      22.93538213
Cs       4.49741680      17.37784646      15.65902625
Pb       0.00000000       9.03824925      18.79083150
Pb       4.25758996      13.55737388      18.79083150
Pb       0.00000000       9.03824925      12.52722100
Pb       4.25758996      13.55737388      12.52722100
I        1.62715314      11.77660615      19.26662793
I        6.88802665      15.33814188      18.31503507
I        5.88474322      10.81901698      18.31503507
I        2.63043669      16.29573051      19.26662793
I        6.88802665      15.33814188      13.00301743
I        1.62715314      11.77660615      24.57864556
I        2.63043669      16.29573051      24.57864556
I        5.88474322      10.81901698      13.00301743
I        7.86432249      18.03095477      21.92263675
I        0.65085762       9.08379314      15.65902625
I        3.60673227      13.60291762      15.65902625
I        4.90844739      13.51182987      21.92263675
Cs       8.27535308      21.89697109       3.13180525
Cs       0.23982687      23.29427518       9.39541575
Cs       4.01776312      18.77515055       9.39541575
Cs       4.49741680      26.41609572       3.13180525
Pb      -0.00000000      18.07649851       6.26361050
Pb       4.25758996      22.59562313       6.26361050
Pb      -0.00000000      18.07649851       0.00000000
Pb       4.25758996      22.59562313       0.00000000
I        1.62715314      20.81485541       6.73940693
I        6.88802665      24.37639113       5.78781407
I        5.88474322      19.85726624       5.78781407
I        2.63043669      25.33397976       6.73940693
I        6.88802665      24.37639113       0.47579643
I        1.62715314      20.81485541      12.05142457
I        2.63043669      25.33397976      12.05142457
I        5.88474322      19.85726624       0.47579643
I        7.86432249      27.06920402       9.39541575
I        0.65085762      18.12204239       3.13180525
I        3.60673227      22.64116688       3.13180525
I        4.90844739      22.55007912       9.39541575
Cs       8.27535308      21.89697109      15.65902625
Cs       0.23982687      23.29427518      21.92263675
N        3.53747590      18.63715879      22.08330228
C        4.50873156      19.31693066      22.95267896
H        5.35261722      18.63629893      23.08674162
H        4.01174214      19.35299390      23.77868090
H        4.67036252      20.26952720      22.50152164
C        4.04437462      18.38214585      20.72999194
H        4.27725109      19.21477301      20.31382539
H        3.36571034      17.94413003      20.21207158
H        4.82137385      17.82051182      20.77988734
H        2.76293777      19.17485983      21.97097881
H        3.38678709      17.93286114      22.44232478
N        4.67763234      26.01193869      15.37669591
C        4.39861704      25.92188013      16.81728020
H        5.09392937      26.59596183      17.32277993
H        4.67157832      25.01363274      16.99379381
H        3.34901087      26.08546055      16.91042525
C        4.40596552      27.33875773      14.81174000
H        3.48186060      27.55984234      14.94532800
H        4.60093285      27.33181900      13.87225921
H        4.95798661      27.99162153      15.24842260
H        4.12394996      25.40899735      14.89550381
H        5.46281012      25.85230076      15.30152263
Pb      -0.00000000      18.07649851      18.79083150
Pb       4.25758996      22.59562313      18.79083150
Pb      -0.00000000      18.07649851      12.52722100
Pb       4.25758996      22.59562313      12.52722100
I        1.62715314      20.81485541      19.26662793
I        6.88802665      24.37639113      18.31503507
I        5.88474322      19.85726624      18.31503507
I        2.63043669      25.33397976      19.26662793
I        6.88802665      24.37639113      13.00301743
I        1.62715314      20.81485541      24.57864556
I        2.63043669      25.33397976      24.57864556
I        5.88474322      19.85726624      13.00301743
I        7.86432249      27.06920402      21.92263675
I        0.65085762      18.12204239      15.65902625
I        3.60673227      22.64116688      15.65902625
I        4.90844739      22.55007912      21.92263675
Cs      -8.75500675      12.85872184       3.13180525
Cs       0.23982687      32.33252444       9.39541575
Cs       4.01776312      27.81339981       9.39541575
Cs     -12.53294304      17.37784646       3.13180525
Pb       0.00000000      27.11474776       6.26361050
Pb     -12.77276988      13.55737388       6.26361050
Pb       0.00000000      27.11474776       0.00000000
Pb     -12.77276988      13.55737388       0.00000000
I        1.62715314      29.85310466       6.73940693
I      -10.14233318      15.33814188       5.78781407
I        5.88474322      28.89551549       5.78781407
I      -14.39992314      16.29573051       6.73940693
I      -10.14233318      15.33814188       0.47579643
I        1.62715314      29.85310466      12.05142457
I      -14.39992314      16.29573051      12.05142457
I        5.88474322      28.89551549       0.47579643
I       -9.16603735      18.03095477       9.39541575
I        0.65085762      27.16029165       3.13180525
I        3.60673227      31.67941613       3.13180525
I      -12.12191244      13.51182987       9.39541575
Cs      -8.75500675      12.85872184      15.65902625
Cs       0.23982687      32.33252444      21.92263675
N        3.51157633      27.92566445      21.84076771
C        3.95810049      26.77851006      22.64444436
H        4.48929808      26.10123822      21.97175770
H        3.10922316      26.38000819      22.87067824
H        4.47387392      27.20239527      23.47595308
C        4.61731188      28.71866949      21.29129641
H        5.15608575      29.05658199      22.00978921
H        4.26305071      29.45228245      20.78434907
H        5.15519850      28.16518146      20.72035061
H        3.00546608      28.52544556      22.37533605
H        3.09068877      27.60856525      21.23253979
N      -12.96557681      17.67328170      15.62620852
C      -12.20681677      17.49925448      16.87330150
H      -12.27796164      16.44462370      17.14910515
H      -12.75028179      18.01154021      17.48386464
H      -11.24920464      17.92716259      16.68099628
C      -12.39644732      16.93957129      14.48990423
H      -11.49956448      17.24155004      14.33146158
H      -12.93018546      17.09737498      13.70829937
H      -12.38803752      16.00013283      14.68747643
H      -12.96873323      18.58681359      15.36717609
H      -13.70022204      17.38394079      15.78182879
Pb       0.00000000      27.11474776      18.79083150
Pb     -12.77276988      13.55737388      18.79083150
Pb       0.00000000      27.11474776      12.52722100
Pb     -12.77276988      13.55737388      12.52722100
I        1.62715314      29.85310466      19.26662793
I      -10.14233318      15.33814188      18.31503507
I        5.88474322      28.89551549      18.31503507
I      -14.39992314      16.29573051      19.26662793
I      -10.14233318      15.33814188      13.00301743
I        1.62715314      29.85310466      24.57864556
I      -14.39992314      16.29573051      24.57864556
I        5.88474322      28.89551549      13.00301743
I       -9.16603735      18.03095477      21.92263675
I        0.65085762      27.16029165      15.65902625
I        3.60673227      31.67941613      15.65902625
I      -12.12191244      13.51182987      21.92263675
N       -0.22345100      31.45702085       3.07715161
C       -1.19246468      30.60728739       2.36989727
H       -0.62387418      29.96329067       1.69510218
H       -1.65558450      31.26878953       1.84215378
H       -1.79010680      30.16660107       3.13522538
C        0.68991842      30.70330605       3.94381020
H        0.18295475      30.22565948       4.60376144
H        1.29081684      31.31115354       4.37984583
H        1.19309440      30.08071395       3.41386385
H       -0.67498437      32.06709174       3.64774728
H        0.20429399      31.81856749       2.49926089
Cs       8.75500679      14.25602593       9.39541575
Cs      -4.49741680      27.81339981       9.39541575
Cs      13.01259671      17.37784646       3.13180525
Pb       8.51517992       9.03824925       6.26361050
Pb      12.77276988      13.55737388       6.26361050
Pb       8.51517992       9.03824925       0.00000000
Pb      12.77276988      13.55737388       0.00000000
I       10.14233306      11.77660615       6.73940693
I       -1.62715327      33.41464039       5.78781407
I       -2.63043669      28.89551549       5.78781407
I       11.14561661      16.29573051       6.73940693
I       -1.62715327      33.41464039       0.47579643
I       10.14233306      11.77660615      12.05142457
I       11.14561661      16.29573051      12.05142457
I       -2.63043669      28.89551549       0.47579643
I       16.37950240      18.03095477       9.39541575
I       -7.86432229      27.16029165       3.13180525
I       12.12191219      13.60291762       3.13180525
I       -3.60673253      31.58832838       9.39541575
Cs      -0.23982684      30.93522034      15.65902625
Cs       8.75500679      14.25602593      21.92263675
Cs      -4.49741680      27.81339981      21.92263675
N       12.82888794      16.95829710      15.91546410
C       14.15235348      16.99058358      15.27621478
H       13.98838288      17.09625631      14.20135560
H       14.45539624      16.09170843      15.45161945
H       14.69827046      17.74246104      15.79943806
C       12.07654262      18.20890205      15.76252433
H       12.57322053      18.93052450      16.15401654
H       11.22849156      18.12740236      16.20394449
H       11.93606179      18.38574810      14.82944302
H       12.91814716      16.82440416      16.85128126
H       12.42833485      16.36616535      15.54590131
Pb       8.51517992       9.03824925      18.79083150
Pb      12.77276988      13.55737388      18.79083150
Pb       8.51517992       9.03824925      12.52722100
Pb      12.77276988      13.55737388      12.52722100
I       10.14233306      11.77660615      19.26662793
I       -1.62715327      33.41464039      18.31503507
I       -2.63043669      28.89551549      18.31503507
I       11.14561661      16.29573051      19.26662793
I       -1.62715327      33.41464039      13.00301743
I       10.14233306      11.77660615      24.57864556
I       11.14561661      16.29573051      24.57864556
I       -2.63043669      28.89551549      13.00301743
I       16.37950240      18.03095477      21.92263675
I       -7.86432229      27.16029165      15.65902625
I       12.12191219      13.60291762      15.65902625
I       -3.60673253      31.58832838      21.92263675
Cs      -0.23982684       3.82047258       3.13180525
Cs       8.75500679      23.29427518       9.39541575
Cs      12.53294304      18.77515055       9.39541575
Cs      -4.01776312       8.33959721       3.13180525
Pb       8.51517992      18.07649851       6.26361050
Pb      -4.25758996       4.51912463       6.26361050
Pb       8.51517992      18.07649851       0.00000000
Pb      -4.25758996       4.51912463       0.00000000
I       10.14233306      20.81485541       6.73940693
I       -1.62715327       6.29989263       5.78781407
I       14.39992314      19.85726624       5.78781407
I       -5.88474322       7.25748125       6.73940693
I       -1.62715327       6.29989263       0.47579643
I       10.14233306      20.81485541      12.05142457
I       -5.88474322       7.25748125      12.05142457
I       14.39992314      19.85726624       0.47579643
I       -0.65085743       8.99270551       9.39541575
I        9.16603754      18.12204239       3.13180525
I       12.12191219      22.64116688       3.13180525
I       -3.60673253       4.47358062       9.39541575
Cs      -0.23982684       3.82047258      15.65902625
Cs       8.75500679      23.29427518      21.92263675
N       12.18123608      18.51228215      22.21027084
C       11.80461365      19.52096054      21.20928802
H       12.19525299      20.48039413      21.55607821
H       10.84579473      19.52575960      21.31521951
H       12.13609016      19.12685151      20.27552732
C       13.63118485      18.31791012      22.32557424
H       13.98414947      18.03621513      21.47895865
H       13.81178384      17.64671450      22.98706121
H       14.04502335      19.14395589      22.58641176
H       11.82588245      17.66421049      21.97331822
H       11.89907272      18.79137781      22.91036290
Cs      -4.01776312       8.33959721      15.65902625
Pb       8.51517992      18.07649851      18.79083150
Pb      -4.25758996       4.51912463      18.79083150
Pb       8.51517992      18.07649851      12.52722100
Pb      -4.25758996       4.51912463      12.52722100
I       10.14233306      20.81485541      19.26662793
I       -1.62715327       6.29989263      18.31503507
I       14.39992314      19.85726624      18.31503507
I       -5.88474322       7.25748125      19.26662793
I       -1.62715327       6.29989263      13.00301743
I       10.14233306      20.81485541      24.57864556
I       -5.88474322       7.25748125      24.57864556
I       14.39992314      19.85726624      13.00301743
I       -0.65085743       8.99270551      21.92263675
I        9.16603754      18.12204239      15.65902625
I       12.12191219      22.64116688      15.65902625
I       -3.60673253       4.47358062      21.92263675
