480
Lattice="17.030359838682134 18.07649850800878 0.0 -17.030359838682134 18.07649850800878 0.0 0.0 0.0 25.054441994943765" Properties=species:S:1:pos:R:3 pbc="T T T"
Cs      -0.23982684      12.85872184       3.13180525
Cs      -8.27535305      14.25602593       9.39541575
Cs      -4.49741680       9.73690130       9.39541575
Cs      -4.01776312      17.37784646       3.13180525
Pb      -8.51517992       9.03824925       6.26361050
Pb      -4.25758996      13.55737388       6.26361050
Pb      -8.51517992       9.03824925       0.00000000
Pb      -4.25758996      13.55737388       0.00000000
I       -6.88802678      11.77660615       6.73940693
I       -1.62715327      15.33814188       5.78781407
I       -2.63043669      10.81901698       5.78781407
I       -5.88474322      16.29573051       6.73940693
I       -1.62715327      15.33814188       0.47579643
I       -6.88802678      11.77660615      12.05142457
I       -5.88474322      16.29573051      12.05142457
I       -2.63043669      10.81901698       0.47579643
I       -0.65085743      18.03095477       9.39541575
I       -7.86432229       9.08379314       3.13180525
I       -4.90844765      13.60291762       3.13180525
I       -3.60673253      13.51182987       9.39541575
Cs      -0.23982684      12.85872184      15.65902625
Cs      -8.27535305      14.25602593      21.92263675
Cs      -4.49741680       9.73690130      21.92263675
Cs      -4.01776312      17.37784646      15.65902625
Pb      -8.51517992       9.03824925      18.79083150
Pb      -4.25758996      13.55737388      18.79083150
Pb      -8.51517992       9.03824925      12.52722100
Pb      -4.25758996      13.55737388      12.52722100
I       -6.88802678      11.77660615      19.26662793
I       -1.62715327      15.33814188      18.31503507
I       -2.63043669      10.81901698      18.31503507
I       -5.88474322      16.29573051      19.26662793
I       -1.62715327      15.33814188      13.00301743
I       -6.88802678      11.77660615      24.57864556
I       -5.88474322      16.29573051      24.57864556
I       -2.63043669      10.81901698      13.00301743
I       -0.65085743      18.03095477      21.92263675
I       -7.86432229       9.08379314      15.65902625
I       -4.90844765      13.60291762      15.65902625
I       -3.60673253      13.51182987      21.92263675
Cs      -0.23982684      21.89697109       3.13180525
N       -8.63381690      23.37884807       9.02140766
C       -8.37877246      22.05235922       9.60159972
H       -7.35657836      21.77494869       9.33413392
H       -8.98701395      21.51252927       9.08275085
H       -8.64583385      22.14009840      10.63023363
C       -7.78796795      24.43574971       9.58791032
H       -7.94117682      24.49532896      10.53325227
H       -8.00503742      25.27420228       9.17491794
H       -6.86481431      24.22834419       9.42536668
H       -9.52881971      23.64644611       9.19172952
H       -8.46760630      23.30392006       8.23757140
Cs      -4.49741680      18.77515055       9.39541575
Cs      -4.01776312      26.41609572       3.13180525
Pb      -8.51517992      18.07649851       6.26361050
Pb      -4.25758996      22.59562313       6.26361050
Pb      -8.51517992      18.07649851       0.00000000
Pb      -4.25758996      22.59562313       0.00000000
I       -6.88802678      20.81485541       6.73940693
I       -1.62715327      24.37639113       5.78781407
I       -2.63043669      19.85726624       5.78781407
I       -5.88474322      25.33397976       6.73940693
I       -1.62715327      24.37639113       0.47579643
I       -6.88802678      20.81485541      12.05142457
I       -5.88474322      25.33397976      12.05142457
I       -2.63043669      19.85726624       0.47579643
I       -0.65085743      27.06920402       9.39541575
I       -7.86432229      18.12204239       3.13180525
I       -4.90844765      22.64116688       3.13180525
I       -3.60673253      22.55007912       9.39541575
Cs      -0.23982684      21.89697109      15.65902625
Cs      -8.27535305      23.29427518      21.92263675
Cs      -4.49741680      18.77515055      21.92263675
N       -3.60557834      26.22061986      15.39936521
C       -4.13603477      27.57077359      15.16073570
H       -5.14613567      27.45404923      14.76142762
H       -3.55774962      27.86426041      14.44657185
H       -3.99260216      28.09468900      16.07836710
C       -4.34228393      25.47791017      16.42847842
H       -4.30407601      25.95832711      17.25819751
H       -3.94634932      24.61126107      16.54179072
H       -5.25793172      25.37859460      16.15759899
H       -2.70913894      26.26872041      15.70876952
H       -3.67960177      25.83551158      14.69661946
Pb      -8.51517992      18.07649851      18.79083150
Pb      -4.25758996      22.59562313      18.79083150
Pb      -8.51517992      18.07649851      12.52722100
Pb      -4.25758996      22.59562313      12.52722100
I       -6.88802678      20.81485541      19.26662793
I       -1.62715327      24.37639113      18.31503507
I       -2.63043669      19.85726624      18.31503507
I       -5.88474322      25.33397976      19.26662793
I       -1.62715327      24.37639113      13.00301743
I       -6.88802678      20.81485541      24.57864556
I       -5.88474322      25.33397976      24.57864556
I       -2.63043669      19.85726624      13.00301743
I       -0.65085743      27.06920402      21.92263675
I       -7.86432229      18.12204239      15.65902625
I       -4.90844765      22.64116688      15.65902625
I       -3.60673253      22.55007912      21.92263675
Cs      -8.75500675      21.89697109       3.13180525
N        0.53564950       5.52389038       9.08830938
C        0.78977075       4.08745993       9.27088292
H        1.05407109       3.93795419      10.32024878
H        1.58621431       3.97960389       8.73738223
H       -0.06938348       3.59772773       8.87197938
C       -0.61980003       6.01319483       9.84919329
H       -1.40746902       5.53927079       9.57411579
H       -0.73662483       6.95121783       9.68442262
H       -0.47004242       5.86902771      10.78644385
H        0.34222810       5.71116769       8.17772514
H        1.19900116       5.89308106       9.35533423
Cs     -13.01259671      18.77515055       9.39541575
Cs       4.49741680       8.33959721       3.13180525
Pb       0.00000000       0.00000000       6.26361050
Pb       4.25758996       4.51912463       6.26361050
Pb       0.00000000       0.00000000       0.00000000
Pb       4.25758996       4.51912463       0.00000000
I        1.62715314       2.73835690       6.73940693
I      -10.14233318      24.37639113       5.78781407
I      -11.14561661      19.85726624       5.78781407
I        2.63043669       7.25748125       6.73940693
I      -10.14233318      24.37639113       0.47579643
I        1.62715314       2.73835690      12.05142457
I        2.63043669       7.25748125      12.05142457
I      -11.14561661      19.85726624       0.47579643
I        7.86432249       8.99270551       9.39541575
I      -16.37950221      18.12204239       3.13180525
I        3.60673227       4.56466837       3.13180525
I      -12.12191244      22.55007912       9.39541575
N       -8.89998607      21.47173423      15.93047711
C       -9.33321679      21.72665889      14.54896789
H       -9.94888153      22.62890590      14.56577887
H       -9.90921303      20.96705543      14.40128867
H       -8.43933470      21.71297192      13.96768042
C       -8.02898312      22.52139386      16.47176753
H       -7.24238680      22.59614918      15.92736702
H       -7.77671379      22.29551256      17.36955503
H       -8.49901597      23.35848342      16.47232320
H       -8.39404478      20.66939890      15.97440554
H       -9.57715370      21.44527804      16.36450880
Cs       0.23982687       5.21777667      21.92263675
Cs     -13.01259671      18.77515055      21.92263675
Cs       4.49741680       8.33959721      15.65902625
Pb       0.00000000       0.00000000      18.79083150
Pb       4.25758996       4.51912463      18.79083150
Pb       0.00000000       0.00000000      12.52722100
Pb       4.25758996       4.51912463      12.52722100
I        1.62715314       2.73835690      19.26662793
I      -10.14233318      24.37639113      18.31503507
I      -11.14561661      19.85726624      18.31503507
I        2.63043669       7.25748125      19.26662793
I      -10.14233318      24.37639113      13.00301743
I        1.62715314       2.73835690      24.57864556
I        2.63043669       7.25748125      24.57864556
I      -11.14561661      19.85726624      13.00301743
I        7.86432249       8.99270551      21.92263675
I      -16.37950221      18.12204239      15.65902625
I        3.60673227       4.56466837      15.65902625
I      -12.12191244      22.55007912      21.92263675
N        8.78334512      12.95066461       3.22678721
C        7.98820331      13.74672034       2.28059063
H        7.69023397      13.07910222       1.46887907
H        8.66264782      14.35039493       1.94700433
H        7.23770783      14.21901682       2.87287453
C        8.01879085      11.87753879       3.87276285
H        7.28178993      12.25669638       4.35625350
H        8.58845606      11.40046047       4.47985623
H        7.68677766      11.27399519       3.20406823
H        9.10269938      13.49991415       3.93246850
H        9.37223467      12.62292969       2.78697093
Cs       0.23982687      14.25602593       9.39541575
N        3.79019069       9.71585957       9.86796097
C        3.65720392      10.86846423       8.96515413
H        4.65234907      11.30424076       8.85043586
H        3.12610875      11.46038305       9.51118368
H        3.14658466      10.49491149       8.10676379
C        4.62094725       8.63784734       9.31918054
H        4.23575429       8.32387108       8.49836427
H        4.66416303       7.91562864       9.94943216
H        5.50602788       8.96973224       9.15144618
H        2.93987090       9.32686655      10.03315470
H        4.14251545      10.00460277      10.53138698
N        4.87004916      17.69467810       3.32231453
C        4.71482559      17.41216508       1.88797315
H        4.91474765      16.34763748       1.74589047
H        5.45679056      17.91258122       1.52790382
H        3.75864744      17.80523303       1.62657576
C        3.88582894      17.00319198       4.16290021
H        3.00121464      17.27154546       3.90572714
H        4.03494851      17.23158095       5.08283847
H        3.97851760      16.05439916       4.04953743
H        4.74700054      18.62100720       3.49090195
H        5.60633950      17.43147888       3.51268824
Pb       0.00000000       9.03824925       6.26361050
Pb       4.25758996      13.55737388       6.26361050
Pb       0.00000000       9.03824925       0.00000000
Pb       4.25758996      13.55737388       0.00000000
I        1.62715314      11.77660615       6.73940693
I        6.88802665      15.33814188       5.78781407
I        5.88474322      10.81901698       5.78781407
I        2.63043669      16.29573051       6.73940693
I        6.88802665      15.33814188       0.47579643
I        1.62715314      11.77660615      12.05142457
I        2.63043669      16.29573051      12.05142457
I        5.88474322      10.81901698       0.47579643
I        7.86432249      18.03095477       9.39541575
I        0.65085762       9.08379314       3.13180525
I        3.60673227      13.60291762       3.13180525
I        4.90844739      13.51182987       9.39541575
N        8.09188801      12.36691850      15.66002628
C        9.52420593      12.68799558      15.74137776
H        9.79948711      13.17274764      14.80190394
H        9.90396874      11.80126701      15.74979743
H        9.64096544      13.21882030      16.65881984
C        7.23221502      13.55302419      15.57317907
H        7.36560520      14.10184150      16.34887273
H        6.31368629      13.27911234      15.52888657
H        7.45553588      14.05303163      14.78465482
H        7.81320381      11.90363069      16.44063361
H        8.00854186      11.93457846      14.98639808
Cs       0.23982687      14.25602593      21.92263675
N        4.20748527       9.81270354      21.43911789
C        3.06956299      10.56940173      21.98113624
H        2.25995025       9.85594036      22.15106390
H        2.84067971      11.11463715      21.21896235
H        3.46511216      11.11909019      22.80484196
C        4.75415857       8.82781466      22.37963317
H        5.05226562       9.27581190      23.17406675
H        5.49411109       8.37315844      21.97165946
H        4.07317003       8.19064030      22.60747869
H        4.92561194      10.39919700      21.23425745
H        3.91865255       9.42597616      20.79517920
Cs       4.49741680      17.37784646      15.65902625
Pb       0.00000000       9.03824925      18.79083150
Pb       4.25758996      13.55737388      18.79083150
Pb       0.00000000       9.03824925      12.52722100
Pb       4.25758996      13.55737388      12.52722100
I        1.62715314      11.77660615      19.26662793
I        6.88802665      15.33814188      18.31503507
I        5.88474322      10.81901698      18.31503507
I        2.63043669      16.29573051      19.26662793
I        6.88802665      15.33814188      13.00301743
I        1.62715314      11.77660615      24.57864556
I        2.63043669      16.29573051      24.57864556
I        5.88474322      10.81901698      13.00301743
I        7.86432249      18.03095477      21.92263675
I        0.65085762       9.08379314      15.65902625
I        3.60673227      13.60291762      15.65902625
I        4.90844739      13.51182987      21.92263675
Cs       8.27535308      21.89697109       3.13180525
Cs       0.23982687      23.29427518       9.39541575
Cs       4.01776312      18.77515055       9.39541575
N        4.92431829      26.24978657       2.87562691
C        3.57067309      25.75762648       2.58123553
H        3.21956323      25.22925942       3.47057543
H        3.76433802      25.10659264       1.89623401
H        3.03266788      26.60909970       2.23101930
C        4.96164389      27.24474256       3.95363255
H        4.42205528      27.99993820       3.71028562
H        5.86701889      27.52997878       4.09370740
H        4.62044180      26.85416293       4.76151795
H        5.29075531      26.68196770       2.11366125
H        5.34153946      25.60098949       3.10503545
Pb      -0.00000000      18.07649851       6.26361050
Pb       4.25758996      22.59562313       6.26361050
Pb      -0.00000000      18.07649851       0.00000000
Pb       4.25758996      22.59562313       0.00000000
I        1.62715314      20.81485541       6.73940693
I        6.88802665      24.37639113       5.78781407
I        5.88474322      19.85726624       5.78781407
I        2.63043669      25.33397976       6.73940693
I        6.88802665      24.37639113       0.47579643
I        1.62715314      20.81485541      12.05142457
I        2.63043669      25.33397976      12.05142457
I        5.88474322      19.85726624       0.47579643
I        7.86432249      27.06920402       9.39541575
I        0.65085762      18.12204239       3.13180525
I        3.60673227      22.64116688       3.13180525
I        4.90844739      22.55007912       9.39541575
N        8.12050553      22.38815269      15.55756774
C        7.37540713      21.20379260      15.10661018
H        8.01583939      20.66981120      14.40085828
H        6.66007191      21.62232874      14.61294910
H        7.05831546      20.71507642      15.99976024
C        9.33523738      22.06043401      16.31285166
H        9.10011156      21.54907599      17.08997641
H        9.77171556      22.87109855      16.58302633
H        9.92782735      21.54713831      15.75876252
H        7.58605014      22.91026549      16.14357452
H        8.32885591      22.77751477      14.88479235
Cs       0.23982687      23.29427518      21.92263675
Cs       4.01776312      18.77515055      21.92263675
Cs       4.49741680      26.41609572      15.65902625
Pb      -0.00000000      18.07649851      18.79083150
Pb       4.25758996      22.59562313      18.79083150
Pb      -0.00000000      18.07649851      12.52722100
Pb       4.25758996      22.59562313      12.52722100
I        1.62715314      20.81485541      19.26662793
I        6.88802665      24.37639113      18.31503507
I        5.88474322      19.85726624      18.31503507
I        2.63043669      25.33397976      19.26662793
I        6.88802665      24.37639113      13.00301743
I        1.62715314      20.81485541      24.57864556
I        2.63043669      25.33397976      24.57864556
I        5.88474322      19.85726624      13.00301743
I        7.86432249      27.06920402      21.92263675
I        0.65085762      18.12204239      15.65902625
I        3.60673227      22.64116688      15.65902625
I        4.90844739      22.55007912      21.92263675
Cs      -8.75500675      12.85872184       3.13180525
Cs       0.23982687      32.33252444       9.39541575
N        4.41334152      27.46884308       9.37726779
C        4.56910421      28.88705671       9.02279461
H        3.95313526      29.06764904       8.13885796
H        5.49623501      28.90200324       8.75674326
H        4.36672765      29.42457109       9.92125422
C        3.04773242      27.11521297       9.78159976
H        2.79545187      27.63744240      10.54601129
H        3.01221594      26.18274292      10.00503373
H        2.44318730      27.29416542       9.05761679
H        4.96561158      27.25191601      10.11861030
H        4.60161812      27.06063213       8.70976859
N      -12.82970354      17.62950624       3.48412829
C      -11.72619355      18.27528047       2.75853576
H      -10.80342205      17.77896155       3.06762416
H      -11.74615525      19.15530174       3.15317779
H      -12.01458052      18.25330873       1.73215481
C      -13.01471102      16.21791112       3.12832180
H      -13.20024324      16.14665180       2.18960249
H      -13.74951179      15.85624002       3.62826820
H      -12.21514400      15.72838376       3.33497532
H      -13.65287269      18.05647561       3.27982951
H      -12.63025442      17.67830665       4.26225296
Pb       0.00000000      27.11474776       6.26361050
Pb     -12.77276988      13.55737388       6.26361050
Pb       0.00000000      27.11474776       0.00000000
Pb     -12.77276988      13.55737388       0.00000000
I        1.62715314      29.85310466       6.73940693
I      -10.14233318      15.33814188       5.78781407
I        5.88474322      28.89551549       5.78781407
I      -14.39992314      16.29573051       6.73940693
I      -10.14233318      15.33814188       0.47579643
I        1.62715314      29.85310466      12.05142457
I      -14.39992314      16.29573051      12.05142457
I        5.88474322      28.89551549       0.47579643
I       -9.16603735      18.03095477       9.39541575
I        0.65085762      27.16029165       3.13180525
I        3.60673227      31.67941613       3.13180525
I      -12.12191244      13.51182987       9.39541575
Cs      -8.75500675      12.85872184      15.65902625
Cs       0.23982687      32.33252444      21.92263675
Cs       4.01776312      27.81339981      21.92263675
Cs     -12.53294304      17.37784646      15.65902625
Pb       0.00000000      27.11474776      18.79083150
Pb     -12.77276988      13.55737388      18.79083150
Pb       0.00000000      27.11474776      12.52722100
Pb     -12.77276988      13.55737388      12.52722100
I        1.62715314      29.85310466      19.26662793
I      -10.14233318      15.33814188      18.31503507
I        5.88474322      28.89551549      18.31503507
I      -14.39992314      16.29573051      19.26662793
I      -10.14233318      15.33814188      13.00301743
I        1.62715314      29.85310466      24.57864556
I      -14.39992314      16.29573051      24.57864556
I        5.88474322      28.89551549      13.00301743
I       -9.16603735      18.03095477      21.92263675
I        0.65085762      27.16029165      15.65902625
I        3.60673227      31.67941613      15.65902625
I      -12.12191244      13.51182987      21.92263675
N       -0.58314875      30.57563767       2.96339705
C       -0.37429541      30.87941312       4.38654283
H        0.65120516      30.59230741       4.63004692
H       -0.97405626      30.24258355       4.79313017
H       -0.67583726      31.89551999       4.50361964
C        0.26226767      31.37227876       2.06670264
H        0.07689144      32.30462678       2.19730461
H        0.07607633      31.13329320       1.15626141
H        1.18644093      31.19911784       2.26053040
H       -1.47831361      30.76959985       2.71298371
H       -0.39078816      29.79854986       2.88110874
Cs       8.75500679      14.25602593       9.39541575
Cs      -4.49741680      27.81339981       9.39541575
Cs      13.01259671      17.37784646       3.13180525
Pb       8.51517992       9.03824925       6.26361050
Pb      12.77276988      13.55737388       6.26361050
Pb       8.51517992       9.03824925       0.00000000
Pb      12.77276988      13.55737388       0.00000000
I       10.14233306      11.77660615       6.73940693
I       -1.62715327      33.41464039       5.78781407
I       -2.63043669      28.89551549       5.78781407
I       11.14561661      16.29573051       6.73940693
I       -1.62715327      33.41464039       0.47579643
I       10.14233306      11.77660615      12.05142457
I       11.14561661      16.29573051      12.05142457
I       -2.63043669      28.89551549       0.47579643
I       16.37950240      18.03095477       9.39541575
I       -7.86432229      27.16029165       3.13180525
I       12.12191219      13.60291762       3.13180525
I       -3.60673253      31.58832838       9.39541575
Cs      -0.23982684      30.93522034      15.65902625
Cs       8.75500679      14.25602593      21.92263675
Cs      -4.49741680      27.81339981      21.92263675
Cs      13.01259671      17.37784646      15.65902625
Pb       8.51517992       9.03824925      18.79083150
Pb      12.77276988      13.55737388      18.79083150
Pb       8.51517992       9.03824925      12.52722100
Pb      12.77276988      13.55737388      12.52722100
I       10.14233306      11.77660615      19.26662793
I       -1.62715327      33.41464039      18.31503507
I       -2.63043669      28.89551549      18.31503507
I       11.14561661      16.29573051      19.26662793
I       -1.62715327      33.41464039      13.00301743
I       10.14233306      11.77660615      24.57864556
I       11.14561661      16.29573051      24.57864556
I       -2.63043669      28.89551549      13.00301743
I       16.37950240      18.03095477      21.92263675
I       -7.86432229      27.16029165      15.65902625
I       12.12191219      13.60291762      15.65902625
I       -3.60673253      31.58832838      21.92263675
N       -0.65044701       4.00387897       2.86109484
C        0.25423114       4.87086348       3.62995013
H        0.14467825       4.59825278       4.68211785
H       -0.16389891       5.72920297       3.49211389
H        1.20578140       4.77106560       3.15909969
C       -0.29352101       2.58211134       2.92897307
H        0.59344912       2.45851861       2.58444024
H       -0.91450827       2.07162026       2.40508546
H       -0.32661942       2.28712509       3.84195595
H       -0.62227823       4.23264533       1.93994298
H       -1.37654081       4.10655879       3.19258254
Cs       8.75500679      23.29427518       9.39541575
Cs      12.53294304      18.77515055       9.39541575
N       -4.38271254       8.31378865       3.50820503
C       -4.60531588       7.82101332       2.14114125
H       -4.55885470       8.68591932       1.47544289
H       -5.52402037       7.53363835       2.20419622
H       -3.90894979       7.02357092       2.01359699
C       -3.04624784       8.88447810       3.71217184
H       -2.38222642       8.21617409       3.53012967
H       -2.96104480       9.18136044       4.62062431
H       -2.92237639       9.62915817       3.11908031
H       -4.45613285       7.60112275       4.13139445
H       -4.93239587       8.89111847       3.61855889
Pb       8.51517992      18.07649851       6.26361050
Pb      -4.25758996       4.51912463       6.26361050
Pb       8.51517992      18.07649851       0.00000000
Pb      -4.25758996       4.51912463       0.00000000
I       10.14233306      20.81485541       6.73940693
I       -1.62715327       6.29989263       5.78781407
I       14.39992314      19.85726624       5.78781407
I       -5.88474322       7.25748125       6.73940693
I       -1.62715327       6.29989263       0.47579643
I       10.14233306      20.81485541      12.05142457
I       -5.88474322       7.25748125      12.05142457
I       14.39992314      19.85726624       0.47579643
I       -0.65085743       8.99270551       9.39541575
I        9.16603754      18.12204239       3.13180525
I       12.12191219      22.64116688       3.13180525
I       -3.60673253       4.47358062       9.39541575
Cs      -0.23982684       3.82047258      15.65902625
Cs       8.75500679      23.29427518      21.92263675
Cs      12.53294304      18.77515055      21.92263675
Cs      -4.01776312       8.33959721      15.65902625
Pb       8.51517992      18.07649851      18.79083150
Pb      -4.25758996       4.51912463      18.79083150
Pb       8.51517992      18.07649851      12.52722100
Pb      -4.25758996       4.51912463      12.52722100
I       10.14233306      20.81485541      19.26662793
I       -1.62715327       6.29989263      18.31503507
I       14.39992314      19.85726624      18.31503507
I       -5.88474322       7.25748125      19.26662793
I       -1.62715327       6.29989263      13.00301743
I       10.14233306      20.81485541      24.57864556
I       -5.88474322       7.25748125      24.57864556
I       14.39992314      19.85726624      13.00301743
I       -0.65085743       8.99270551      21.92263675
I        9.16603754      18.12204239      15.65902625
I       12.12191219      22.64116688      15.65902625
I       -3.60673253       4.47358062      21.92263675
